<?xml version="1.0" encoding="UTF-8"?>

<!-- generated on Fri May  8 08:54:06 2015 by SUMO netconvert Version 0.22.0
<?xml version="1.0" encoding="UTF-8"?>

<configuration xmlns:xsi="http://www.w3.org/2001/XMLSchema-instance" xsi:noNamespaceSchemaLocation="http://sumo.dlr.de/xsd/netconvertConfiguration.xsd">

    <input>
        <node-files value="scenario2.nod.xml"/>
        <edge-files value="scenario2.edg.xml"/>
        <type-files value="scenario2.typ.xml"/>
    </input>

    <output>
        <output-file value="output/scenario2.net.xml"/>
    </output>

</configuration>
-->

<net version="0.13" xmlns:xsi="http://www.w3.org/2001/XMLSchema-instance" xsi:noNamespaceSchemaLocation="http://sumo.dlr.de/xsd/net_file.xsd">

    <location netOffset="0.00,0.00" convBoundary="0.00,0.00,2880.00,6005.00" origBoundary="0.00,0.00,2880.00,6005.00" projParameter="!"/>

    <edge id=":0_0" function="internal">
        <lane id=":0_0_0" index="0" speed="25.00" length="7.84" shape="2003.13,488.88 2007.05,490.73"/>
        <lane id=":0_0_1" index="1" speed="25.00" length="7.84" shape="1993.26,489.81 1996.98,490.61 1999.58,491.09 2002.05,491.88 2005.40,493.59"/>
        <lane id=":0_0_2" index="2" speed="25.00" length="7.84" shape="1995.20,493.70 2003.75,496.45"/>
        <lane id=":0_0_3" index="3" speed="25.00" length="7.84" shape="1997.15,497.59 2002.10,499.31"/>
    </edge>
    <edge id=":0_4" function="internal">
        <lane id=":0_4_0" index="0" speed="25.00" length="7.12" shape="2003.24,488.45 2007.05,490.73"/>
        <lane id=":0_4_1" index="1" speed="25.00" length="7.12" shape="1994.43,491.75 1997.81,491.65 2000.19,491.63 2002.44,492.13 2005.40,493.59"/>
        <lane id=":0_4_2" index="2" speed="25.00" length="7.12" shape="1995.88,495.05 2003.75,496.45"/>
        <lane id=":0_4_3" index="3" speed="25.00" length="7.12" shape="1997.53,498.35 2002.10,499.31"/>
    </edge>
    <edge id=":0_8" function="internal">
        <lane id=":0_8_0" index="0" speed="25.00" length="7.17" shape="2003.24,488.45 2007.05,490.73"/>
        <lane id=":0_8_1" index="1" speed="25.00" length="7.17" shape="1994.23,491.75 1997.67,491.64 2000.10,491.61 2002.38,492.11 2005.40,493.59"/>
        <lane id=":0_8_2" index="2" speed="25.00" length="7.17" shape="1995.88,495.05 2003.75,496.45"/>
        <lane id=":0_8_3" index="3" speed="25.00" length="7.17" shape="1997.53,498.35 2002.10,499.31"/>
    </edge>
    <edge id=":0_12" function="internal">
        <lane id=":0_12_0" index="0" speed="25.00" length="7.17" shape="2003.24,488.45 2007.05,490.73"/>
        <lane id=":0_12_1" index="1" speed="25.00" length="7.17" shape="1994.23,491.75 1997.67,491.64 2000.10,491.61 2002.38,492.11 2005.40,493.59"/>
        <lane id=":0_12_2" index="2" speed="25.00" length="7.17" shape="1995.88,495.05 2003.75,496.45"/>
        <lane id=":0_12_3" index="3" speed="25.00" length="7.17" shape="1997.53,498.35 2002.10,499.31"/>
    </edge>
    <edge id=":0_16" function="internal">
        <lane id=":0_16_0" index="0" speed="25.00" length="9.24" shape="1993.52,490.33 1996.94,489.06 2000.34,488.71 2003.71,489.27 2007.05,490.73"/>
        <lane id=":0_16_1" index="1" speed="25.00" length="9.24" shape="1994.99,493.28 1997.63,492.31 2000.24,492.04 2002.83,492.46 2005.40,493.59"/>
        <lane id=":0_16_2" index="2" speed="25.00" length="9.24" shape="1996.47,496.23 1998.31,495.55 2000.14,495.36 2001.95,495.66 2003.75,496.45"/>
        <lane id=":0_16_3" index="3" speed="25.00" length="9.24" shape="1997.94,499.18 1999.00,498.79 2000.04,498.69 2001.07,498.86 2002.10,499.31"/>
    </edge>
    <edge id=":0_20" function="internal">
        <lane id=":0_20_0" index="0" speed="25.00" length="9.25" shape="1993.55,490.39 1996.81,489.01 2000.15,488.61 2003.56,489.19 2007.05,490.73"/>
        <lane id=":0_20_1" index="1" speed="25.00" length="9.25" shape="1995.03,493.35 1997.54,492.28 2000.11,491.97 2002.73,492.41 2005.40,493.59"/>
        <lane id=":0_20_2" index="2" speed="25.00" length="9.25" shape="1996.50,496.30 1998.27,495.55 2000.06,495.33 2001.89,495.63 2003.75,496.45"/>
        <lane id=":0_20_3" index="3" speed="25.00" length="9.25" shape="1997.98,499.26 1999.00,498.83 2000.02,498.69 2001.06,498.85 2002.10,499.31"/>
    </edge>
    <edge id=":0_24" function="internal">
        <lane id=":0_24_0" index="0" speed="25.00" length="4.44" shape="1993.46,490.21 1993.86,489.94"/>
        <lane id=":0_24_1" index="1" speed="25.00" length="4.44" shape="1995.01,493.32 1997.02,491.98 1999.42,491.57 2002.22,492.11 2005.40,493.59"/>
        <lane id=":0_24_2" index="2" speed="25.00" length="4.44" shape="1996.57,496.43 1998.00,495.45 1999.67,495.13"/>
        <lane id=":0_24_3" index="3" speed="25.00" length="4.44" shape="1998.12,499.54 1998.97,498.93 1999.92,498.68 2000.50,498.75"/>
    </edge>
    <edge id=":0_28" function="internal">
        <lane id=":0_28_0" index="0" speed="25.00" length="14.17" shape="1993.86,489.94 1996.05,488.50 1999.18,488.02 2002.84,488.76 2007.05,490.73"/>
    </edge>
    <edge id=":0_29" function="internal">
        <lane id=":0_29_0" index="0" speed="25.00" length="4.32" shape="1999.67,495.13 2001.59,495.46 2003.75,496.45"/>
    </edge>
    <edge id=":0_30" function="internal">
        <lane id=":0_30_0" index="0" speed="25.00" length="1.70" shape="2000.50,498.75 2000.96,498.81 2002.10,499.31"/>
    </edge>
    <edge id=":1_0" function="internal">
        <lane id=":1_0_0" index="0" speed="25.00" length="19.08" shape="2008.65,1518.33 2004.32,1516.46 2000.00,1515.83 1995.68,1516.46 1991.35,1518.33"/>
        <lane id=":1_0_1" index="1" speed="25.00" length="19.08" shape="2008.65,1518.33 2002.98,1515.56 1997.94,1514.17 1993.51,1514.14 1989.70,1515.47"/>
    </edge>
    <edge id=":1_2" function="internal">
        <lane id=":1_2_0" index="0" speed="25.00" length="25.97" shape="2010.30,1515.47 2003.41,1512.09 1998.35,1510.48 1993.29,1508.87 1986.40,1505.49"/>
        <lane id=":1_2_1" index="1" speed="25.00" length="25.97" shape="2011.95,1512.61 2005.06,1509.23 2000.00,1507.62 1994.94,1506.01 1988.05,1502.63"/>
        <lane id=":1_2_2" index="2" speed="25.00" length="25.97" shape="2013.60,1509.76 2006.71,1506.38 2001.65,1504.76 1996.59,1503.15 1989.70,1499.77"/>
    </edge>
    <edge id=":1_5" function="internal">
        <lane id=":1_5_0" index="0" speed="25.00" length="25.97" shape="2013.60,1505.49 2006.71,1508.87 2001.65,1510.48 1996.59,1512.09 1989.70,1515.47"/>
        <lane id=":1_5_1" index="1" speed="25.00" length="25.97" shape="2011.95,1502.63 2005.06,1506.01 2000.00,1507.62 1994.94,1509.23 1988.05,1512.61"/>
        <lane id=":1_5_2" index="2" speed="25.00" length="25.97" shape="2010.30,1499.77 2003.41,1503.15 1998.35,1504.76 1993.29,1506.38 1986.40,1509.76"/>
    </edge>
    <edge id=":1_8" function="internal">
        <lane id=":1_8_0" index="0" speed="25.00" length="19.08" shape="2008.65,1496.91 2002.98,1499.68 1997.94,1501.08 1993.51,1501.11 1989.70,1499.77"/>
        <lane id=":1_8_1" index="1" speed="25.00" length="19.08" shape="2008.65,1496.91 2004.32,1498.78 2000.00,1499.41 1995.68,1498.78 1991.35,1496.91"/>
    </edge>
    <edge id=":10_0" function="internal">
        <lane id=":10_0_0" index="0" speed="25.00" length="15.48" shape="1128.12,5009.96 1121.65,5004.98 1119.49,5000.00 1121.65,4995.02 1128.12,4990.04"/>
        <lane id=":10_0_1" index="1" speed="25.00" length="15.48" shape="1129.77,5007.10 1125.16,5003.55 1123.62,5000.00 1125.16,4996.45 1129.77,4992.90"/>
        <lane id=":10_0_2" index="2" speed="25.00" length="15.48" shape="1131.42,5004.24 1128.66,5002.12 1127.74,5000.00 1128.66,4997.88 1131.42,4995.76"/>
        <lane id=":10_0_3" index="3" speed="25.00" length="15.48" shape="1133.07,5001.39 1132.17,5000.69 1131.87,5000.00 1132.17,4999.31 1133.07,4998.61"/>
    </edge>
    <edge id=":11_0" function="internal">
        <lane id=":11_0_0" index="0" speed="25.00" length="25.49" shape="1140.28,6009.69 1153.72,6000.40 1157.25,5993.76 1150.87,5989.78 1134.59,5988.45"/>
        <lane id=":11_0_1" index="1" speed="25.00" length="25.49" shape="1139.39,6006.39 1148.66,5999.99 1151.10,5995.41 1146.70,5992.67 1135.47,5991.75"/>
        <lane id=":11_0_2" index="2" speed="25.00" length="25.49" shape="1138.51,6003.09 1143.60,5999.58 1144.94,5997.06 1142.52,5995.55 1136.35,5995.05"/>
        <lane id=":11_0_3" index="3" speed="25.00" length="25.49" shape="1137.63,5999.79 1138.54,5999.16 1138.78,5998.71 1138.35,5998.44 1137.24,5998.35"/>
    </edge>
    <edge id=":12_0" function="internal">
        <lane id=":12_0_0" index="0" speed="25.00" length="15.48" shape="2871.88,990.04 2878.35,995.02 2880.51,1000.00 2878.35,1004.98 2871.88,1009.96"/>
        <lane id=":12_0_1" index="1" speed="25.00" length="15.48" shape="2870.23,992.90 2874.84,996.45 2876.38,1000.00 2874.84,1003.55 2870.23,1007.10"/>
        <lane id=":12_0_2" index="2" speed="25.00" length="15.48" shape="2868.58,995.76 2871.34,997.88 2872.26,1000.00 2871.34,1002.12 2868.58,1004.24"/>
        <lane id=":12_0_3" index="3" speed="25.00" length="15.48" shape="2866.93,998.61 2867.83,999.31 2868.13,1000.00 2867.83,1000.69 2866.93,1001.39"/>
    </edge>
    <edge id=":13_0" function="internal">
        <lane id=":13_0_0" index="0" speed="25.00" length="15.48" shape="2840.53,2001.39 2841.43,2000.69 2841.73,2000.00 2841.43,1999.31 2840.53,1998.61"/>
        <lane id=":13_0_1" index="1" speed="25.00" length="15.48" shape="2842.18,2004.24 2844.94,2002.12 2845.85,2000.00 2844.94,1997.88 2842.18,1995.76"/>
        <lane id=":13_0_2" index="2" speed="25.00" length="15.48" shape="2843.83,2007.10 2848.44,2003.55 2849.98,2000.00 2848.44,1996.45 2843.83,1992.90"/>
        <lane id=":13_0_3" index="3" speed="25.00" length="15.48" shape="2845.48,2009.96 2851.95,2004.98 2854.10,2000.00 2851.95,1995.02 2845.48,1990.04"/>
    </edge>
    <edge id=":14_0" function="internal">
        <lane id=":14_0_0" index="0" speed="25.00" length="15.48" shape="2871.88,2990.04 2878.35,2995.02 2880.51,3000.00 2878.35,3004.98 2871.88,3009.96"/>
        <lane id=":14_0_1" index="1" speed="25.00" length="15.48" shape="2870.23,2992.90 2874.84,2996.45 2876.38,3000.00 2874.84,3003.55 2870.23,3007.10"/>
        <lane id=":14_0_2" index="2" speed="25.00" length="15.48" shape="2868.58,2995.76 2871.34,2997.88 2872.26,3000.00 2871.34,3002.12 2868.58,3004.24"/>
        <lane id=":14_0_3" index="3" speed="25.00" length="15.48" shape="2866.93,2998.61 2867.83,2999.31 2868.13,3000.00 2867.83,3000.69 2866.93,3001.39"/>
    </edge>
    <edge id=":15_0" function="internal">
        <lane id=":15_0_0" index="0" speed="25.00" length="15.48" shape="2840.53,4001.39 2841.43,4000.69 2841.73,4000.00 2841.43,3999.31 2840.53,3998.61"/>
        <lane id=":15_0_1" index="1" speed="25.00" length="15.48" shape="2842.18,4004.24 2844.94,4002.12 2845.85,4000.00 2844.94,3997.88 2842.18,3995.76"/>
        <lane id=":15_0_2" index="2" speed="25.00" length="15.48" shape="2843.83,4007.10 2848.44,4003.55 2849.98,4000.00 2848.44,3996.45 2843.83,3992.90"/>
        <lane id=":15_0_3" index="3" speed="25.00" length="15.48" shape="2845.48,4009.96 2851.95,4004.98 2854.10,4000.00 2851.95,3995.02 2845.48,3990.04"/>
    </edge>
    <edge id=":16_0" function="internal">
        <lane id=":16_0_0" index="0" speed="25.00" length="15.48" shape="2871.88,4990.04 2878.35,4995.02 2880.51,5000.00 2878.35,5004.98 2871.88,5009.96"/>
        <lane id=":16_0_1" index="1" speed="25.00" length="15.48" shape="2870.23,4992.90 2874.84,4996.45 2876.38,5000.00 2874.84,5003.55 2870.23,5007.10"/>
        <lane id=":16_0_2" index="2" speed="25.00" length="15.48" shape="2868.58,4995.76 2871.34,4997.88 2872.26,5000.00 2871.34,5002.12 2868.58,5004.24"/>
        <lane id=":16_0_3" index="3" speed="25.00" length="15.48" shape="2866.93,4998.61 2867.83,4999.31 2868.13,5000.00 2867.83,5000.69 2866.93,5001.39"/>
    </edge>
    <edge id=":17_0" function="internal">
        <lane id=":17_0_0" index="0" speed="25.00" length="52.43" shape="2858.91,6009.60 2849.46,6000.51 2839.51,5995.04 2828.65,5990.62 2816.45,5984.71"/>
        <lane id=":17_0_1" index="1" speed="25.00" length="52.43" shape="2862.69,6009.07 2852.92,5999.61 2842.23,5993.34 2830.63,5988.12 2818.10,5981.86"/>
        <lane id=":17_0_2" index="2" speed="25.00" length="52.43" shape="2864.43,6005.95 2854.64,5996.54 2843.92,5990.35 2832.29,5985.23 2819.75,5979.00"/>
        <lane id=":17_0_3" index="3" speed="25.00" length="52.43" shape="2867.52,6004.53 2857.50,5994.89 2846.29,5988.21 2834.17,5982.59 2821.40,5976.14"/>
    </edge>
    <edge id=":17_4" function="internal">
        <lane id=":17_4_0" index="0" speed="25.00" length="54.40" shape="2861.72,6010.82 2849.71,6004.04 2839.03,5997.86 2828.38,5991.64 2816.45,5984.71"/>
        <lane id=":17_4_1" index="1" speed="25.00" length="54.40" shape="2867.52,6010.27 2854.86,6003.13 2842.75,5996.16 2830.68,5989.15 2818.10,5981.86"/>
        <lane id=":17_4_2" index="2" speed="25.00" length="54.40" shape="2867.52,6006.50 2855.12,5999.50 2843.58,5992.85 2832.07,5986.14 2819.75,5979.00"/>
        <lane id=":17_4_3" index="3" speed="25.00" length="54.40" shape="2867.52,6002.72 2855.38,5995.86 2844.40,5989.53 2833.46,5983.14 2821.40,5976.14"/>
    </edge>
    <edge id=":17_8" function="internal">
        <lane id=":17_8_0" index="0" speed="25.00" length="56.07" shape="2867.52,6011.55 2853.54,6008.76 2840.98,6001.88 2828.93,5993.13 2816.45,5984.71"/>
        <lane id=":17_8_1" index="1" speed="25.00" length="56.07" shape="2867.52,6008.25 2853.79,6005.53 2841.81,5998.80 2830.32,5990.20 2818.10,5981.86"/>
        <lane id=":17_8_2" index="2" speed="25.00" length="56.07" shape="2867.52,6004.95 2854.05,6002.30 2842.63,5995.72 2831.71,5987.27 2819.75,5979.00"/>
        <lane id=":17_8_3" index="3" speed="25.00" length="56.07" shape="2867.52,6001.65 2854.31,5999.07 2843.46,5992.65 2833.10,5984.35 2821.40,5976.14"/>
    </edge>
    <edge id=":17_12" function="internal">
        <lane id=":17_12_0" index="0" speed="25.00" length="56.07" shape="2867.52,6011.55 2853.54,6008.76 2840.98,6001.88 2828.93,5993.13 2816.45,5984.71"/>
        <lane id=":17_12_1" index="1" speed="25.00" length="56.07" shape="2867.52,6008.25 2853.79,6005.53 2841.81,5998.80 2830.32,5990.20 2818.10,5981.86"/>
        <lane id=":17_12_2" index="2" speed="25.00" length="56.07" shape="2867.52,6004.95 2854.05,6002.30 2842.63,5995.72 2831.71,5987.27 2819.75,5979.00"/>
        <lane id=":17_12_3" index="3" speed="25.00" length="56.07" shape="2867.52,6001.65 2854.31,5999.07 2843.46,5992.65 2833.10,5984.35 2821.40,5976.14"/>
    </edge>
    <edge id=":17_16" function="internal">
        <lane id=":17_16_0" index="0" speed="25.00" length="56.07" shape="2867.52,6011.55 2853.54,6008.76 2840.98,6001.88 2828.93,5993.13 2816.45,5984.71"/>
        <lane id=":17_16_1" index="1" speed="25.00" length="56.07" shape="2867.52,6008.25 2853.79,6005.53 2841.81,5998.80 2830.32,5990.20 2818.10,5981.86"/>
        <lane id=":17_16_2" index="2" speed="25.00" length="56.07" shape="2867.52,6004.95 2854.05,6002.30 2842.63,5995.72 2831.71,5987.27 2819.75,5979.00"/>
        <lane id=":17_16_3" index="3" speed="25.00" length="56.07" shape="2867.52,6001.65 2854.31,5999.07 2843.46,5992.65 2833.10,5984.35 2821.40,5976.14"/>
    </edge>
    <edge id=":17_20" function="internal">
        <lane id=":17_20_0" index="0" speed="25.00" length="29.14" shape="2815.45,5988.45 2818.32,5988.22 2819.44,5987.52 2818.82,5986.35 2816.45,5984.71"/>
        <lane id=":17_20_1" index="1" speed="25.00" length="29.14" shape="2815.45,5991.75 2823.04,5991.13 2826.01,5989.28 2824.36,5986.18 2818.10,5981.86"/>
        <lane id=":17_20_2" index="2" speed="25.00" length="29.14" shape="2815.45,5995.05 2827.76,5994.05 2832.58,5991.04 2829.91,5986.02 2819.75,5979.00"/>
        <lane id=":17_20_3" index="3" speed="25.00" length="29.14" shape="2815.45,5998.35 2832.48,5996.96 2839.15,5992.80 2835.46,5985.86 2821.40,5976.14"/>
    </edge>
    <edge id=":2_0" function="internal">
        <lane id=":2_0_0" index="0" speed="25.00" length="19.08" shape="1991.35,2481.67 1995.68,2483.54 2000.00,2484.17 2004.32,2483.54 2008.65,2481.67"/>
        <lane id=":2_0_1" index="1" speed="25.00" length="19.08" shape="1991.35,2481.67 1997.02,2484.44 2002.06,2485.83 2006.49,2485.86 2010.30,2484.53"/>
    </edge>
    <edge id=":2_2" function="internal">
        <lane id=":2_2_0" index="0" speed="25.00" length="25.97" shape="1989.70,2484.53 1996.59,2487.91 2001.65,2489.52 2006.71,2491.13 2013.60,2494.51"/>
        <lane id=":2_2_1" index="1" speed="25.00" length="25.97" shape="1988.05,2487.39 1994.94,2490.77 2000.00,2492.38 2005.06,2493.99 2011.95,2497.37"/>
        <lane id=":2_2_2" index="2" speed="25.00" length="25.97" shape="1986.40,2490.24 1993.29,2493.62 1998.35,2495.24 2003.41,2496.85 2010.30,2500.23"/>
    </edge>
    <edge id=":2_5" function="internal">
        <lane id=":2_5_0" index="0" speed="25.00" length="25.97" shape="1986.40,2494.51 1993.29,2491.13 1998.35,2489.52 2003.41,2487.91 2010.30,2484.53"/>
        <lane id=":2_5_1" index="1" speed="25.00" length="25.97" shape="1988.05,2497.37 1994.94,2493.99 2000.00,2492.38 2005.06,2490.77 2011.95,2487.39"/>
        <lane id=":2_5_2" index="2" speed="25.00" length="25.97" shape="1989.70,2500.23 1996.59,2496.85 2001.65,2495.24 2006.71,2493.62 2013.60,2490.24"/>
    </edge>
    <edge id=":2_8" function="internal">
        <lane id=":2_8_0" index="0" speed="25.00" length="19.08" shape="1991.35,2503.09 1997.02,2500.32 2002.06,2498.92 2006.49,2498.89 2010.30,2500.23"/>
        <lane id=":2_8_1" index="1" speed="25.00" length="19.08" shape="1991.35,2503.09 1995.68,2501.22 2000.00,2500.59 2004.32,2501.22 2008.65,2503.09"/>
    </edge>
    <edge id=":3_0" function="internal">
        <lane id=":3_0_0" index="0" speed="25.00" length="19.08" shape="2008.65,3518.33 2004.32,3516.46 2000.00,3515.83 1995.68,3516.46 1991.35,3518.33"/>
        <lane id=":3_0_1" index="1" speed="25.00" length="19.08" shape="2008.65,3518.33 2002.98,3515.56 1997.94,3514.17 1993.51,3514.14 1989.70,3515.47"/>
    </edge>
    <edge id=":3_2" function="internal">
        <lane id=":3_2_0" index="0" speed="25.00" length="25.97" shape="2010.30,3515.47 2003.41,3512.09 1998.35,3510.48 1993.29,3508.87 1986.40,3505.49"/>
        <lane id=":3_2_1" index="1" speed="25.00" length="25.97" shape="2011.95,3512.61 2005.06,3509.23 2000.00,3507.62 1994.94,3506.01 1988.05,3502.63"/>
        <lane id=":3_2_2" index="2" speed="25.00" length="25.97" shape="2013.60,3509.76 2006.71,3506.38 2001.65,3504.76 1996.59,3503.15 1989.70,3499.77"/>
    </edge>
    <edge id=":3_5" function="internal">
        <lane id=":3_5_0" index="0" speed="25.00" length="25.97" shape="2013.60,3505.49 2006.71,3508.87 2001.65,3510.48 1996.59,3512.09 1989.70,3515.47"/>
        <lane id=":3_5_1" index="1" speed="25.00" length="25.97" shape="2011.95,3502.63 2005.06,3506.01 2000.00,3507.62 1994.94,3509.23 1988.05,3512.61"/>
        <lane id=":3_5_2" index="2" speed="25.00" length="25.97" shape="2010.30,3499.77 2003.41,3503.15 1998.35,3504.76 1993.29,3506.38 1986.40,3509.76"/>
    </edge>
    <edge id=":3_8" function="internal">
        <lane id=":3_8_0" index="0" speed="25.00" length="19.08" shape="2008.65,3496.91 2002.98,3499.68 1997.94,3501.08 1993.51,3501.11 1989.70,3499.77"/>
        <lane id=":3_8_1" index="1" speed="25.00" length="19.08" shape="2008.65,3496.91 2004.32,3498.78 2000.00,3499.41 1995.68,3498.78 1991.35,3496.91"/>
    </edge>
    <edge id=":4_0" function="internal">
        <lane id=":4_0_0" index="0" speed="25.00" length="19.08" shape="1991.35,4481.67 1995.68,4483.54 2000.00,4484.17 2004.32,4483.54 2008.65,4481.67"/>
        <lane id=":4_0_1" index="1" speed="25.00" length="19.08" shape="1991.35,4481.67 1997.02,4484.44 2002.06,4485.83 2006.49,4485.86 2010.30,4484.53"/>
    </edge>
    <edge id=":4_2" function="internal">
        <lane id=":4_2_0" index="0" speed="25.00" length="25.97" shape="1989.70,4484.53 1996.59,4487.91 2001.65,4489.52 2006.71,4491.13 2013.60,4494.51"/>
        <lane id=":4_2_1" index="1" speed="25.00" length="25.97" shape="1988.05,4487.39 1994.94,4490.77 2000.00,4492.38 2005.06,4493.99 2011.95,4497.37"/>
        <lane id=":4_2_2" index="2" speed="25.00" length="25.97" shape="1986.40,4490.24 1993.29,4493.62 1998.35,4495.24 2003.41,4496.85 2010.30,4500.23"/>
    </edge>
    <edge id=":4_5" function="internal">
        <lane id=":4_5_0" index="0" speed="25.00" length="25.97" shape="1986.40,4494.51 1993.29,4491.13 1998.35,4489.52 2003.41,4487.91 2010.30,4484.53"/>
        <lane id=":4_5_1" index="1" speed="25.00" length="25.97" shape="1988.05,4497.37 1994.94,4493.99 2000.00,4492.38 2005.06,4490.77 2011.95,4487.39"/>
        <lane id=":4_5_2" index="2" speed="25.00" length="25.97" shape="1989.70,4500.23 1996.59,4496.85 2001.65,4495.24 2006.71,4493.62 2013.60,4490.24"/>
    </edge>
    <edge id=":4_8" function="internal">
        <lane id=":4_8_0" index="0" speed="25.00" length="19.08" shape="1991.35,4503.09 1997.02,4500.32 2002.06,4498.92 2006.49,4498.89 2010.30,4500.23"/>
        <lane id=":4_8_1" index="1" speed="25.00" length="19.08" shape="1991.35,4503.09 1995.68,4501.22 2000.00,4500.59 2004.32,4501.22 2008.65,4503.09"/>
    </edge>
    <edge id=":5_0" function="internal">
        <lane id=":5_0_0" index="0" speed="25.00" length="19.08" shape="2008.65,5518.33 2004.32,5516.46 2000.00,5515.83 1995.68,5516.46 1991.35,5518.33"/>
        <lane id=":5_0_1" index="1" speed="25.00" length="19.08" shape="2008.65,5518.33 2002.98,5515.56 1997.94,5514.17 1993.51,5514.14 1989.70,5515.47"/>
    </edge>
    <edge id=":5_2" function="internal">
        <lane id=":5_2_0" index="0" speed="25.00" length="25.97" shape="2010.30,5515.47 2003.41,5512.09 1998.35,5510.48 1993.29,5508.87 1986.40,5505.49"/>
        <lane id=":5_2_1" index="1" speed="25.00" length="25.97" shape="2011.95,5512.61 2005.06,5509.23 2000.00,5507.62 1994.94,5506.01 1988.05,5502.63"/>
        <lane id=":5_2_2" index="2" speed="25.00" length="25.97" shape="2013.60,5509.76 2006.71,5506.38 2001.65,5504.76 1996.59,5503.15 1989.70,5499.77"/>
    </edge>
    <edge id=":5_5" function="internal">
        <lane id=":5_5_0" index="0" speed="25.00" length="25.97" shape="2013.60,5505.49 2006.71,5508.87 2001.65,5510.48 1996.59,5512.09 1989.70,5515.47"/>
        <lane id=":5_5_1" index="1" speed="25.00" length="25.97" shape="2011.95,5502.63 2005.06,5506.01 2000.00,5507.62 1994.94,5509.23 1988.05,5512.61"/>
        <lane id=":5_5_2" index="2" speed="25.00" length="25.97" shape="2010.30,5499.77 2003.41,5503.15 1998.35,5504.76 1993.29,5506.38 1986.40,5509.76"/>
    </edge>
    <edge id=":5_8" function="internal">
        <lane id=":5_8_0" index="0" speed="25.00" length="19.08" shape="2008.65,5496.91 2002.98,5499.68 1997.94,5501.08 1993.51,5501.11 1989.70,5499.77"/>
        <lane id=":5_8_1" index="1" speed="25.00" length="19.08" shape="2008.65,5496.91 2004.32,5498.78 2000.00,5499.41 1995.68,5498.78 1991.35,5496.91"/>
    </edge>
    <edge id=":6_0" function="internal">
        <lane id=":6_0_0" index="0" speed="25.00" length="15.48" shape="1128.12,1009.96 1121.65,1004.98 1119.49,1000.00 1121.65,995.02 1128.12,990.04"/>
        <lane id=":6_0_1" index="1" speed="25.00" length="15.48" shape="1129.77,1007.10 1125.16,1003.55 1123.62,1000.00 1125.16,996.45 1129.77,992.90"/>
        <lane id=":6_0_2" index="2" speed="25.00" length="15.48" shape="1131.42,1004.24 1128.66,1002.12 1127.74,1000.00 1128.66,997.88 1131.42,995.76"/>
        <lane id=":6_0_3" index="3" speed="25.00" length="15.48" shape="1133.07,1001.39 1132.17,1000.69 1131.87,1000.00 1132.17,999.31 1133.07,998.61"/>
    </edge>
    <edge id=":7_0" function="internal">
        <lane id=":7_0_0" index="0" speed="25.00" length="15.48" shape="1159.47,1998.61 1158.57,1999.31 1158.27,2000.00 1158.57,2000.69 1159.47,2001.39"/>
        <lane id=":7_0_1" index="1" speed="25.00" length="15.48" shape="1157.82,1995.76 1155.06,1997.88 1154.15,2000.00 1155.06,2002.12 1157.82,2004.24"/>
        <lane id=":7_0_2" index="2" speed="25.00" length="15.48" shape="1156.17,1992.90 1151.56,1996.45 1150.02,2000.00 1151.56,2003.55 1156.17,2007.10"/>
        <lane id=":7_0_3" index="3" speed="25.00" length="15.48" shape="1154.52,1990.04 1148.05,1995.02 1145.90,2000.00 1148.05,2004.98 1154.52,2009.96"/>
    </edge>
    <edge id=":8_0" function="internal">
        <lane id=":8_0_0" index="0" speed="25.00" length="15.48" shape="1128.12,3009.96 1121.65,3004.98 1119.49,3000.00 1121.65,2995.02 1128.12,2990.04"/>
        <lane id=":8_0_1" index="1" speed="25.00" length="15.48" shape="1129.77,3007.10 1125.16,3003.55 1123.62,3000.00 1125.16,2996.45 1129.77,2992.90"/>
        <lane id=":8_0_2" index="2" speed="25.00" length="15.48" shape="1131.42,3004.24 1128.66,3002.12 1127.74,3000.00 1128.66,2997.88 1131.42,2995.76"/>
        <lane id=":8_0_3" index="3" speed="25.00" length="15.48" shape="1133.07,3001.39 1132.17,3000.69 1131.87,3000.00 1132.17,2999.31 1133.07,2998.61"/>
    </edge>
    <edge id=":9_0" function="internal">
        <lane id=":9_0_0" index="0" speed="25.00" length="15.48" shape="1159.47,3998.61 1158.57,3999.31 1158.27,4000.00 1158.57,4000.69 1159.47,4001.39"/>
        <lane id=":9_0_1" index="1" speed="25.00" length="15.48" shape="1157.82,3995.76 1155.06,3997.88 1154.15,4000.00 1155.06,4002.12 1157.82,4004.24"/>
        <lane id=":9_0_2" index="2" speed="25.00" length="15.48" shape="1156.17,3992.90 1151.56,3996.45 1150.02,4000.00 1151.56,4003.55 1156.17,4007.10"/>
        <lane id=":9_0_3" index="3" speed="25.00" length="15.48" shape="1154.52,3990.04 1148.05,3995.02 1145.90,4000.00 1148.05,4004.98 1154.52,4009.96"/>
    </edge>

    <edge id="a" from="0" to="12" priority="1" type="a">
        <lane id="a_0" index="0" speed="25.00" length="998.62" shape="2007.05,490.73 2871.88,990.04"/>
        <lane id="a_1" index="1" speed="25.00" length="998.62" shape="2005.40,493.59 2870.23,992.90"/>
        <lane id="a_2" index="2" speed="25.00" length="998.62" shape="2003.75,496.45 2868.58,995.76"/>
        <lane id="a_3" index="3" speed="25.00" length="998.62" shape="2002.10,499.31 2866.93,998.61"/>
    </edge>
    <edge id="a0" from="00" to="0" priority="1" type="a">
        <lane id="a0_0" index="0" speed="25.00" length="2.96" shape="1995.00,488.45 2003.24,488.45"/>
        <lane id="a0_1" index="1" speed="25.00" length="2.96" shape="1994.23,491.75 1994.43,491.75"/>
        <lane id="a0_2" index="2" speed="25.00" length="2.96" shape="1995.00,495.05 1995.88,495.05"/>
        <lane id="a0_3" index="3" speed="25.00" length="2.96" shape="1995.00,498.35 1997.53,498.35"/>
    </edge>
    <edge id="a00" from="000" to="0" priority="1" type="a">
        <lane id="a00_0" index="0" speed="25.00" length="2057.00" shape="2.80,-11.21 2003.13,488.88"/>
        <lane id="a00_1" index="1" speed="25.00" length="2057.00" shape="2.00,-8.00 1993.26,489.81"/>
        <lane id="a00_2" index="2" speed="25.00" length="2057.00" shape="1.20,-4.80 1995.20,493.70"/>
        <lane id="a00_3" index="3" speed="25.00" length="2057.00" shape="0.40,-1.60 1997.15,497.59"/>
    </edge>
    <edge id="a1" from="01" to="0" priority="1" type="a">
        <lane id="a1_0" index="0" speed="25.00" length="7.72" shape="1990.00,488.45 2003.24,488.45"/>
        <lane id="a1_1" index="1" speed="25.00" length="7.72" shape="1990.00,491.75 1994.23,491.75"/>
        <lane id="a1_2" index="2" speed="25.00" length="7.72" shape="1990.00,495.05 1995.88,495.05"/>
        <lane id="a1_3" index="3" speed="25.00" length="7.72" shape="1990.00,498.35 1997.53,498.35"/>
    </edge>
    <edge id="a2" from="02" to="0" priority="1" type="a">
        <lane id="a2_0" index="0" speed="25.00" length="12.72" shape="1985.00,488.45 2003.24,488.45"/>
        <lane id="a2_1" index="1" speed="25.00" length="12.72" shape="1985.00,491.75 1994.23,491.75"/>
        <lane id="a2_2" index="2" speed="25.00" length="12.72" shape="1985.00,495.05 1995.88,495.05"/>
        <lane id="a2_3" index="3" speed="25.00" length="12.72" shape="1985.00,498.35 1997.53,498.35"/>
    </edge>
    <edge id="a3" from="03" to="0" priority="1" type="a">
        <lane id="a3_0" index="0" speed="25.00" length="7.72" shape="1986.83,496.83 1993.46,490.21"/>
        <lane id="a3_1" index="1" speed="25.00" length="7.72" shape="1989.17,499.17 1995.01,493.32"/>
        <lane id="a3_2" index="2" speed="25.00" length="7.72" shape="1991.50,501.50 1996.57,496.43"/>
        <lane id="a3_3" index="3" speed="25.00" length="7.72" shape="1993.83,503.83 1998.12,499.54"/>
    </edge>
    <edge id="a4" from="04" to="0" priority="1" type="a">
        <lane id="a4_0" index="0" speed="25.00" length="9.71" shape="1984.83,494.67 1993.52,490.33"/>
        <lane id="a4_1" index="1" speed="25.00" length="9.71" shape="1986.31,497.62 1994.99,493.28"/>
        <lane id="a4_2" index="2" speed="25.00" length="9.71" shape="1987.79,500.57 1996.47,496.23"/>
        <lane id="a4_3" index="3" speed="25.00" length="9.71" shape="1989.26,503.52 1997.94,499.18"/>
    </edge>
    <edge id="a5" from="05" to="17" priority="1" type="b">
        <lane id="a5_0" index="0" speed="25.00" length="2.48" shape="2870.00,6011.55 2867.52,6011.55"/>
        <lane id="a5_1" index="1" speed="25.00" length="2.48" shape="2870.00,6008.25 2867.52,6008.25"/>
        <lane id="a5_2" index="2" speed="25.00" length="2.48" shape="2870.00,6004.95 2867.52,6004.95"/>
        <lane id="a5_3" index="3" speed="25.00" length="2.48" shape="2870.00,6001.65 2867.52,6001.65"/>
    </edge>
    <edge id="a6" from="06" to="17" priority="1" type="b">
        <lane id="a6_0" index="0" speed="25.00" length="7.48" shape="2875.00,6011.55 2867.52,6011.55"/>
        <lane id="a6_1" index="1" speed="25.00" length="7.48" shape="2875.00,6008.25 2867.52,6008.25"/>
        <lane id="a6_2" index="2" speed="25.00" length="7.48" shape="2875.00,6004.95 2867.52,6004.95"/>
        <lane id="a6_3" index="3" speed="25.00" length="7.48" shape="2875.00,6001.65 2867.52,6001.65"/>