<?xml version="1.0" encoding="UTF-8"?>

<!-- generated on Tue Apr  7 02:17:02 2015 by SUMO netconvert Version 0.22.0
<?xml version="1.0" encoding="UTF-8"?>

<configuration xmlns:xsi="http://www.w3.org/2001/XMLSchema-instance" xsi:noNamespaceSchemaLocation="http://sumo.dlr.de/xsd/netconvertConfiguration.xsd">

    <input>
        <node-files value="scenario1.nod.xml"/>
        <edge-files value="scenario1.edg.xml"/>
        <type-files value="scenario1.typ.xml"/>
    </input>

    <output>
        <output-file value="output/scenario1.net.xml"/>
    </output>

</configuration>
-->

<net version="0.13" xmlns:xsi="http://www.w3.org/2001/XMLSchema-instance" xsi:noNamespaceSchemaLocation="http://sumo.dlr.de/xsd/net_file.xsd">

    <location netOffset="0.00,0.00" convBoundary="0.00,0.00,2866.03,6000.00" origBoundary="0.00,0.00,2866.03,6000.00" projParameter="!"/>

    <edge id=":0_0" function="internal">
        <lane id=":0_0_0" index="0" speed="25.00" length="5.45" shape="2002.55,495.66 2002.39,497.28 2002.60,498.62 2003.18,499.69 2004.14,500.49"/>
    </edge>
    <edge id=":0_1" function="internal">
        <lane id=":0_1_0" index="0" speed="25.00" length="5.48" shape="2002.46,495.65 2002.33,497.26 2002.57,498.61 2003.17,499.68 2004.14,500.49"/>
    </edge>
    <edge id=":0_2" function="internal">
        <lane id=":0_2_0" index="0" speed="25.00" length="5.52" shape="2002.37,495.63 2002.27,497.25 2002.53,498.60 2003.16,499.68 2004.14,500.49"/>
    </edge>
    <edge id=":0_3" function="internal">
        <lane id=":0_3_0" index="0" speed="25.00" length="5.56" shape="2002.28,495.61 2002.21,497.23 2002.50,498.59 2003.14,499.67 2004.14,500.49"/>
    </edge>
    <edge id=":0_4" function="internal">
        <lane id=":0_4_0" index="0" speed="25.00" length="5.60" shape="2002.19,495.59 2002.15,497.22 2002.47,498.58 2003.13,499.67 2004.14,500.49"/>
    </edge>
    <edge id=":0_5" function="internal">
        <lane id=":0_5_0" index="0" speed="25.00" length="5.64" shape="2002.10,495.57 2002.10,497.21 2002.43,498.57 2003.12,499.66 2004.14,500.49"/>
    </edge>
    <edge id=":0_6" function="internal">
        <lane id=":0_6_0" index="0" speed="25.00" length="5.68" shape="2002.01,495.56 2002.04,497.19 2002.40,498.56 2003.10,499.66 2004.14,500.49"/>
    </edge>
    <edge id=":0_7" function="internal">
        <lane id=":0_7_0" index="0" speed="25.00" length="5.73" shape="2001.92,495.54 2001.98,497.18 2002.37,498.55 2003.09,499.65 2004.14,500.49"/>
    </edge>
    <edge id=":0_8" function="internal">
        <lane id=":0_8_0" index="0" speed="25.00" length="5.77" shape="2001.83,495.52 2001.92,497.16 2002.34,498.54 2003.08,499.64 2004.14,500.49"/>
    </edge>
    <edge id=":0_9" function="internal">
        <lane id=":0_9_0" index="0" speed="25.00" length="5.82" shape="2001.74,495.50 2001.86,497.15 2002.31,498.53 2003.07,499.64 2004.14,500.49"/>
    </edge>
    <edge id=":0_10" function="internal">
        <lane id=":0_10_0" index="0" speed="25.00" length="10.38" shape="1994.46,496.91 1997.41,497.63 1999.50,498.22 2001.49,499.04 2004.14,500.49"/>
    </edge>
    <edge id=":0_11" function="internal">
        <lane id=":0_11_0" index="0" speed="25.00" length="9.58" shape="1995.03,500.97 1997.46,499.86 1999.79,499.41 2002.02,499.62 2004.14,500.49"/>
    </edge>
    <edge id=":1_0" function="internal">
        <lane id=":1_0_0" index="0" speed="25.00" length="7.77" shape="2003.70,1504.04 2001.85,1503.24 2000.00,1502.97 1998.15,1503.24 1996.30,1504.04"/>
    </edge>
    <edge id=":1_1" function="internal">
        <lane id=":1_1_0" index="0" speed="25.00" length="8.54" shape="2003.70,1504.04 1996.30,1499.77"/>
    </edge>
    <edge id=":1_2" function="internal">
        <lane id=":1_2_0" index="0" speed="25.00" length="8.54" shape="2003.70,1499.77 1996.30,1504.04"/>
    </edge>
    <edge id=":1_3" function="internal">
        <lane id=":1_3_0" index="0" speed="25.00" length="7.77" shape="2003.70,1499.77 2001.85,1500.57 2000.00,1500.84 1998.15,1500.57 1996.30,1499.77"/>
    </edge>
    <edge id=":10_0" function="internal">
        <lane id=":10_0_0" index="0" speed="25.00" length="3.78" shape="1133.07,5001.39 1132.17,5000.69 1131.87,5000.00 1132.17,4999.31 1133.07,4998.61"/>
    </edge>
    <edge id=":11_0" function="internal">
        <lane id=":11_0_0" index="0" speed="25.00" length="6.23" shape="1135.33,6001.12 1137.08,5999.91 1137.54,5999.04 1136.71,5998.52 1134.59,5998.35"/>
    </edge>
    <edge id=":12_0" function="internal">
        <lane id=":12_0_0" index="0" speed="25.00" length="3.78" shape="2866.93,998.61 2867.83,999.31 2868.13,1000.00 2867.83,1000.69 2866.93,1001.39"/>
    </edge>
    <edge id=":13_0" function="internal">
        <lane id=":13_0_0" index="0" speed="25.00" length="3.78" shape="2860.33,2001.39 2861.23,2000.69 2861.53,2000.00 2861.23,1999.31 2860.33,1998.61"/>
    </edge>
    <edge id=":14_0" function="internal">
        <lane id=":14_0_0" index="0" speed="25.00" length="3.78" shape="2866.93,2998.61 2867.83,2999.31 2868.13,3000.00 2867.83,3000.69 2866.93,3001.39"/>
    </edge>
    <edge id=":15_0" function="internal">
        <lane id=":15_0_0" index="0" speed="25.00" length="3.78" shape="2860.33,4001.39 2861.23,4000.69 2861.53,4000.00 2861.23,3999.31 2860.33,3998.61"/>
    </edge>
    <edge id=":16_0" function="internal">
        <lane id=":16_0_0" index="0" speed="25.00" length="3.78" shape="2866.93,4998.61 2867.83,4999.31 2868.13,5000.00 2867.83,5000.69 2866.93,5001.39"/>
    </edge>
    <edge id=":17_0" function="internal">
        <lane id=":17_0_0" index="0" speed="25.00" length="6.23" shape="2865.41,5998.35 2863.29,5998.52 2862.46,5999.04 2862.92,5999.91 2864.67,6001.12"/>
    </edge>
    <edge id=":2_0" function="internal">
        <lane id=":2_0_0" index="0" speed="25.00" length="7.77" shape="1996.30,2495.96 1998.15,2496.76 2000.00,2497.03 2001.85,2496.76 2003.70,2495.96"/>
    </edge>
    <edge id=":2_1" function="internal">
        <lane id=":2_1_0" index="0" speed="25.00" length="8.54" shape="1996.30,2495.96 2003.70,2500.23"/>
    </edge>
    <edge id=":2_2" function="internal">
        <lane id=":2_2_0" index="0" speed="25.00" length="8.54" shape="1996.30,2500.23 2003.70,2495.96"/>
    </edge>
    <edge id=":2_3" function="internal">
        <lane id=":2_3_0" index="0" speed="25.00" length="7.77" shape="1996.30,2500.23 1998.15,2499.43 2000.00,2499.16 2001.85,2499.43 2003.70,2500.23"/>
    </edge>
    <edge id=":3_0" function="internal">
        <lane id=":3_0_0" index="0" speed="25.00" length="7.77" shape="2003.70,3504.04 2001.85,3503.24 2000.00,3502.97 1998.15,3503.24 1996.30,3504.04"/>
    </edge>
    <edge id=":3_1" function="internal">
        <lane id=":3_1_0" index="0" speed="25.00" length="8.54" shape="2003.70,3504.04 1996.30,3499.77"/>
    </edge>
    <edge id=":3_2" function="internal">
        <lane id=":3_2_0" index="0" speed="25.00" length="8.54" shape="2003.70,3499.77 1996.30,3504.04"/>
    </edge>
    <edge id=":3_3" function="internal">
        <lane id=":3_3_0" index="0" speed="25.00" length="7.77" shape="2003.70,3499.77 2001.85,3500.57 2000.00,3500.84 1998.15,3500.57 1996.30,3499.77"/>
    </edge>
    <edge id=":4_0" function="internal">
        <lane id=":4_0_0" index="0" speed="25.00" length="7.77" shape="1996.30,4495.96 1998.15,4496.76 2000.00,4497.03 2001.85,4496.76 2003.70,4495.96"/>
    </edge>
    <edge id=":4_1" function="internal">
        <lane id=":4_1_0" index="0" speed="25.00" length="8.54" shape="1996.30,4495.96 2003.70,4500.23"/>
    </edge>
    <edge id=":4_2" function="internal">
        <lane id=":4_2_0" index="0" speed="25.00" length="8.54" shape="1996.30,4500.23 2003.70,4495.96"/>
    </edge>
    <edge id=":4_3" function="internal">
        <lane id=":4_3_0" index="0" speed="25.00" length="7.77" shape="1996.30,4500.23 1998.15,4499.43 2000.00,4499.16 2001.85,4499.43 2003.70,4500.23"/>
    </edge>
    <edge id=":5_0" function="internal">
        <lane id=":5_0_0" index="0" speed="25.00" length="7.77" shape="2003.70,5504.04 2001.85,5503.24 2000.00,5502.97 1998.15,5503.24 1996.30,5504.04"/>
    </edge>
    <edge id=":5_1" function="internal">
        <lane id=":5_1_0" index="0" speed="25.00" length="8.54" shape="2003.70,5504.04 1996.30,5499.77"/>
    </edge>
    <edge id=":5_2" function="internal">
        <lane id=":5_2_0" index="0" speed="25.00" length="8.54" shape="2003.70,5499.77 1996.30,5504.04"/>
    </edge>
    <edge id=":5_3" function="internal">
        <lane id=":5_3_0" index="0" speed="25.00" length="7.77" shape="2003.70,5499.77 2001.85,5500.57 2000.00,5500.84 1998.15,5500.57 1996.30,5499.77"/>
    </edge>
    <edge id=":6_0" function="internal">
        <lane id=":6_0_0" index="0" speed="25.00" length="3.78" shape="1133.07,1001.39 1132.17,1000.69 1131.87,1000.00 1132.17,999.31 1133.07,998.61"/>
    </edge>
    <edge id=":7_0" function="internal">
        <lane id=":7_0_0" index="0" speed="25.00" length="3.78" shape="1139.67,1998.61 1138.77,1999.31 1138.47,2000.00 1138.77,2000.69 1139.67,2001.39"/>
    </edge>
    <edge id=":8_0" function="internal">
        <lane id=":8_0_0" index="0" speed="25.00" length="3.78" shape="1133.07,3001.39 1132.17,3000.69 1131.87,3000.00 1132.17,2999.31 1133.07,2998.61"/>
    </edge>
    <edge id=":9_0" function="internal">
        <lane id=":9_0_0" index="0" speed="25.00" length="3.78" shape="1139.67,3998.61 1138.77,3999.31 1138.47,4000.00 1138.77,4000.69 1139.67,4001.39"/>
    </edge>

    <edge id="a" from="0" to="12" priority="1" type="a">
        <lane id="a_0" index="0" speed="25.00" length="996.26" shape="2004.14,500.49 2866.93,998.61"/>
    </edge>
    <edge id="a0" from="00" to="0" priority="1" type="a">
        <lane id="a0_0" index="0" speed="25.00" length="495.57" shape="2011.65,0.03 2001.74,495.50"/>
    </edge>
    <edge id="a00" from="000" to="0" priority="1" type="a">
        <lane id="a00_0" index="0" speed="25.00" length="2055.43" shape="0.40,-1.60 1994.46,496.91"/>
    </edge>
    <edge id="a1" from="01" to="0" priority="1" type="a">
        <lane id="a1_0" index="0" speed="25.00" length="495.85" shape="2021.65,0.07 2001.83,495.52"/>
    </edge>
    <edge id="a2" from="02" to="0" priority="1" type="a">
        <lane id="a2_0" index="0" speed="25.00" length="496.33" shape="2031.65,0.10 2001.92,495.54"/>
    </edge>
    <edge id="a3" from="03" to="0" priority="1" type="a">
        <lane id="a3_0" index="0" speed="25.00" length="497.01" shape="2041.64,0.13 2002.01,495.56"/>
    </edge>
    <edge id="a4" from="04" to="0" priority="1" type="a">
        <lane id="a4_0" index="0" speed="25.00" length="497.88" shape="2051.64,0.16 2002.10,495.57"/>
    </edge>
    <edge id="a5" from="05" to="0" priority="1" type="a">
        <lane id="a5_0" index="0" speed="25.00" length="498.95" shape="2061.64,0.20 2002.19,495.59"/>
    </edge>
    <edge id="a6" from="06" to="0" priority="1" type="a">
        <lane id="a6_0" index="0" speed="25.00" length="500.21" shape="2071.63,0.23 2002.28,495.61"/>
    </edge>
    <edge id="a7" from="07" to="0" priority="1" type="a">
        <lane id="a7_0" index="0" speed="25.00" length="501.67" shape="2081.63,0.26 2002.37,495.63"/>
    </edge>
    <edge id="a8" from="08" to="0" priority="1" type="a">
        <lane id="a8_0" index="0" speed="25.00" length="503.32" shape="2091.62,0.29 2002.46,495.65"/>
    </edge>
    <edge id="a9" from="09" to="0" priority="1" type="a">
        <lane id="a9_0" index="0" speed="25.00" length="505.15" shape="2101.62,0.32 2002.55,495.66"/>
    </edge>
    <edge id="b" from="12" to="1" priority="1" type="a">
        <lane id="b_0" index="0" speed="25.00" length="996.77" shape="2866.93,1001.39 2003.70,1499.77"/>
    </edge>
    <edge id="c" from="1" to="7" priority="1" type="a">
        <lane id="c_0" index="0" speed="25.00" length="989.15" shape="1996.30,1504.04 1139.67,1998.61"/>
    </edge>
    <edge id="d" from="7" to="2" priority="1" type="a">
        <lane id="d_0" index="0" speed="25.00" length="989.15" shape="1139.67,2001.39 1996.30,2495.96"/>
    </edge>
    <edge id="e" from="2" to="14" priority="1" type="a">
        <lane id="e_0" index="0" speed="25.00" length="996.77" shape="2003.70,2500.23 2866.93,2998.61"/>
    </edge>
    <edge id="f" from="14" to="3" priority="1" type="a">
        <lane id="f_0" index="0" speed="25.00" length="996.77" shape="2866.93,3001.39 2003.70,3499.77"/>
    </edge>
    <edge id="g" from="3" to="9" priority="1" type="a">
        <lane id="g_0" index="0" speed="25.00" length="989.15" shape="1996.30,3504.04 1139.67,3998.61"/>
    </edge>
    <edge id="h" from="9" to="4" priority="1" type="a">
        <lane id="h_0" index="0" speed="25.00" length="989.15" shape="1139.67,4001.39 1996.30,4495.96"/>
    </edge>
    <edge id="i" from="4" to="16" priority="1" type="a">
        <lane id="i_0" index="0" speed="25.00" length="996.77" shape="2003.70,4500.23 2866.93,4998.61"/>
    </edge>
    <edge id="j" from="16" to="5" priority="1" type="a">
        <lane id="j_0" index="0" speed="25.00" length="996.77" shape="2866.93,5001.39 2003.70,5499.77"/>
    </edge>
    <edge id="k" from="5" to="11" priority="1" type="a">
        <lane id="k_0" index="0" speed="25.00" length="994.16" shape="1996.30,5504.04 1135.33,6001.12"/>
    </edge>
    <edge id="l" from="11" to="17" priority="1" type="a">
        <lane id="l_0" index="0" speed="25.00" length="1730.83" shape="1134.59,5998.35 2865.41,5998.35"/>
    </edge>
    <edge id="m" from="17" to="5" priority="1" type="a">
        <lane id="m_0" index="0" speed="25.00" length="994.16" shape="2864.67,6001.12 2003.70,5504.04"/>
    </edge>
    <edge id="n" from="5" to="10" priority="1" type="a">
        <lane id="n_0" index="0" speed="25.00" length="996.77" shape="1996.30,5499.77 1133.07,5001.39"/>
    </edge>
    <edge id="o" from="10" to="4" priority="1" type="a">
        <lane id="o_0" index="0" speed="25.00" length="996.77" shape="1133.07,4998.61 1996.30,4500.23"/>
    </edge>
    <edge id="p" from="4" to="15" priority="1" type="a">
        <lane id="p_0" index="0" speed="25.00" length="989.15" shape="2003.70,4495.96 2860.33,4001.39"/>
    </edge>
    <edge id="q" from="15" to="3" priority="1" type="a">
        <lane id="q_0" index="0" speed="25.00" length="989.15" shape="2860.33,3998.61 2003.70,3504.04"/>
    </edge>
    <edge id="r" from="3" to="8" priority="1" type="a">
        <lane id="r_0" index="0" speed="25.00" length="996.77" shape="1996.30,3499.77 1133.07,3001.39"/>
    </edge>
    <edge id="s" from="8" to="2" priority="1" type="a">
        <lane id="s_0" index="0" speed="25.00" length="996.77" shape="1133.07,2998.61 1996.30,2500.23"/>
    </edge>
    <edge id="t" from="2" to="13" priority="1" type="a">
        <lane id="t_0" index="0" speed="25.00" length="989.15" shape="2003.70,2495.96 2860.33,2001.39"/>
    </edge>
    <edge id="u" from="13" to="1" priority="1" type="a">
        <lane id="u_0" index="0" speed="25.00" length="989.15" shape="2860.33,1998.61 2003.70,1504.04"/>
    </edge>
    <edge id="v" from="1" to="6" priority="1" type="a">
        <lane id="v_0" index="0" speed="25.00" length="996.77" shape="1996.30,1499.77 1133.07,1001.39"/>
    </edge>
    <edge id="w" from="6" to="0" priority="1" type="a">
        <lane id="w_0" index="0" speed="25.00" length="995.30" shape="1133.07,998.61 1995.03,500.97"/>
    </edge>

    <junction id="0" type="priority" x="2000.00" y="500.00" incLanes="a9_0 a8_0 a7_0 a6_0 a5_0 a4_0 a3_0 a2_0 a1_0 a0_0 a00_0 w_0" intLanes=":0_0_0 :0_1_0 :0_2_0 :0_3_0 :0_4_0 :0_5_0 :0_6_0 :0_7_0 :0_8_0 :0_9_0 :0_10_0 :0_11_0" shape="2003.34,501.87 2004.94,499.10 2004.12,495.98 2000.98,495.35 1994.85,495.36 1994.07,498.47 1994.23,499.58 1995.83,502.35">
        <request index="0" response="000000000000" foes="111111111110" cont="0"/>
        <request index="1" response="100000000001" foes="111111111101" cont="0"/>
        <request index="2" response="100000000011" foes="111111111011" cont="0"/>
        <request index="3" response="100000000111" foes="111111110111" cont="0"/>
        <request index="4" response="100000001111" foes="111111101111" cont="0"/>
        <request index="5" response="100000011111" foes="111111011111" cont="0"/>
        <request index="6" response="100000111111" foes="111110111111" cont="0"/>
        <request index="7" response="100001111111" foes="111101111111" cont="0"/>
        <request index="8" response="100011111111" foes="111011111111" cont="0"/>
        <request index="9" response="100111111111" foes="110111111111" cont="0"/>
        <request index="10" response="101111111111" foes="101111111111" cont="0"/>
        <request index="11" response="000000000001" foes="011111111111" cont="0"/>
    </junction>
    <junction id="00" type="unregulated" x="2010.00" y="0.00" incLanes="" intLanes="" shape="2010.05,0.00 2013.25,0.06"/>
    <junction id="000" type="unregulated" x="0.00" y="0.00" incLanes="" intLanes="" shape="0.01,-0.05 0.79,-3.15"/>
    <junction id="01" type="unregulated" x="2020.00" y="0.00" incLanes="" intLanes="" shape="2020.05,0.00 2023.25,0.13"/>
    <junction id="02" type="unregulated" x="2030.00" y="0.00" incLanes="" intLanes="" shape="2030.05,0.00 2033.24,0.19"/>
    <junction id="03" type="unregulated" x="2040.00" y="0.00" incLanes="" intLanes="" shape="2040.05,0.00 2043.24,0.26"/>
    <junction id="04" type="unregulated" x="2050.00" y="0.00" incLanes="" intLanes="" shape="2050.05,0.00 2053.23,0.32"/>
    <junction id="05" type="unregulated" x="2060.00" y="0.00" incLanes="" intLanes="" shape="2060.05,0.01 2063.23,0.39"/>
    <junction id="06" type="unregulated" x="2070.00" y="0.00" incLanes="" intLanes="" shape="2070.05,0.01 2073.22,0.45"/>
    <junction id="07" type="unregulated" x="2080.00" y="0.00" incLanes="" intLanes="" shape="2080.05,0.01 2083.21,0.51"/>
    <junction id="08" type="unregulated" x="2090.00" y="0.00" incLanes="" intLanes="" shape="2090.05,0.01 2093.20,0.58"/>
    <junction id="09" type="unregulated" x="2100.00" y="0.00" incLanes="" intLanes="" shape="2100.05,0.01 2103.19,0.64"/>
    <junction id="1" type="priority" x="2000.00" y="1500.00" incLanes="u_0 b_0" intLanes=":1_0_0 :1_1_0 :1_2_0 :1_3_0" shape="2002.90,1505.43 2004.50,1502.66 2004.50,1501.16 2002.90,1498.38 1997.10,1498.38 1995.50,1501.16 1995.50,1502.66 1997.10,1505.43">
        <request index="0" response="0000" foes="0100" cont="0"/>
        <request index="1" response="0000" foes="1100" cont="0"/>
        <request index="2" response="0011" foes="0011" cont="0"/>
        <request index="3" response="0010" foes="0010" cont="0"/>
    </junction>
    <junction id="10" type="priority" x="1133.97" y="5000.00" incLanes="n_0" intLanes=":10_0_0" shape="1132.27,5002.77 1133.87,5000.00 1132.27,4997.23">
        <request index="0" response="0" foes="0" cont="0"/>
    </junction>
    <junction id="11" type="priority" x="1133.97" y="6000.00" incLanes="k_0" intLanes=":11_0_0" shape="1134.16,5999.95 1134.16,5996.75 1135.76,6002.72 1134.16,5999.95">
        <request index="0" response="0" foes="0" cont="0"/>
    </junction>
    <junction id="12" type="priority" x="2866.03" y="1000.00" incLanes="a_0" intLanes=":12_0_0" shape="2867.73,997.23 2866.13,1000.00 2867.73,1002.77">
        <request index="0" response="0" foes="0" cont="0"/>
    </junction>
    <junction id="13" type="priority" x="2866.03" y="2000.00" incLanes="t_0" intLanes=":13_0_0" shape="2861.13,1997.23 2859.53,2000.00 2861.13,2002.77">
        <request index="0" response="0" foes="0" cont="0"/>
    </junction>
    <junction id="14" type="priority" x="2866.03" y="3000.00" incLanes="e_0" intLanes=":14_0_0" shape="2867.73,2997.23 2866.13,3000.00 2867.73,3002.77">
        <request index="0" response="0" foes="0" cont="0"/>
    </junction>
    <junction id="15" type="priority" x="2866.03" y="4000.00" incLanes="p_0" intLanes=":15_0_0" shape="2861.13,3997.23 2859.53,4000.00 2861.13,4002.77">
        <request index="0" response="0" foes="0" cont="0"/>
    </junction>
    <junction id="16" type="priority" x="2866.03" y="5000.00" incLanes="i_0" intLanes=":16_0_0" shape="2867.73,4997.23 2866.13,5000.00 2867.73,5002.77">
        <request index="0" response="0" foes="0" cont="0"/>
    </junction>
    <junction id="17" type="priority" x="2866.03" y="6000.00" incLanes="l_0" intLanes=":17_0_0" shape="2865.84,5999.95 2864.24,6002.72 2865.84,5996.75 2865.84,5999.95">
        <request index="0" response="0" foes="0" cont="0"/>
    </junction>
    <junction id="2" type="priority" x="2000.00" y="2500.00" incLanes="d_0 s_0" intLanes=":2_0_0 :2_1_0 :2_2_0 :2_3_0" shape="2002.90,2501.62 2004.50,2498.84 2004.50,2497.34 2002.90,2494.57 1997.10,2494.57 1995.50,2497.34 1995.50,2498.84 1997.10,2501.62">
        <request index="0" response="0000" foes="0100" cont="0"/>
        <request index="1" response="0000" foes="1100" cont="0"/>
        <request index="2" response="0011" foes="0011" cont="0"/>
        <request index="3" response="0010" foes="0010" cont="0"/>
    </junction>
    <junction id="3" type="priority" x="2000.00" y="3500.00" incLanes="q_0 f_0" intLanes=":3_0_0 :3_1_0 :3_2_0 :3_3_0" shape="2002.90,3505.43 2004.50,3502.66 2004.50,3501.16 2002.90,3498.38 1997.10,3498.38 1995.50,3501.16 1995.50,3502.66 1997.10,3505.43">
        <request index="0" response="0000" foes="0100" cont="0"/>
        <request index="1" response="0000" foes="1100" cont="0"/>
        <request index="2" response="0011" foes="0011" cont="0"/>
        <request index="3" response="0010" foes="0010" cont="0"/>
    </junction>
    <junction id="4" type="priority" x="2000.00" y="4500.00" incLanes="h_0 o_0" intLanes=":4_0_0 :4_1_0 :4_2_0 :4_3_0" shape="2002.90,4501.62 2004.50,4498.84 2004.50,4497.34 2002.90,4494.57 1997.10,4494.57 1995.50,4497.34 1995.50,4498.84 1997.10,4501.62">
        <request index="0" response="0000" foes="0100" cont="0"/>
        <request index="1" response="0000" foes="1100" cont="0"/>
        <request index="2" response="0011" foes="0011" cont="0"/>
        <request index="3" response="0010" foes="0010" cont="0"/>
    </junction>
    <junction id="5" type="priority" x="2000.00" y="5500.00" incLanes="m_0 j_0" intLanes=":5_0_0 :5_1_0 :5_2_0 :5_3_0" shape="2002.90,5505.43 2004.50,5502.66 2004.50,5501.16 2002.90,5498.38 1997.10,5498.38 1995.50,5501.16 1995.50,5502.66 1997.10,5505.43">
        <request index="0" response="0000" foes="0100" cont="0"/>
        <request index="1" response="0000" foes="1100" cont="0"/>
        <request index="2" response="0011" foes="0011" cont="0"/>
        <request index="3" response="0010" foes="0010" cont="0"/>
    </junction>
    <junction id="6" type="priority" x="1133.97" y="1000.00" incLanes="v_0" intLanes=":6_0_0" shape="1132.27,1002.77 1133.87,1000.00 1132.27,997.23">
        <request index="0" response="0" foes="0" cont="0"/>
    </junction>
    <junction id="7" type="priority" x="1133.97" y="2000.00" incLanes="c_0" intLanes=":7_0_0" shape="1138.87,2002.77 1140.47,2000.00 1138.87,1997.23">
        <request index="0" response="0" foes="0" cont="0"/>
    </junction>
    <junction id="8" type="priority" x="1133.97" y="3000.00" incLanes="r_0" intLanes=":8_0_0" shape="1132.27,3002.77 1133.87,3000.00 1132.27,2997.23">
        <request index="0" response="0" foes="0" cont="0"/>
    </junction>
    <junction id="9" type="priority" x="1133.97" y="4000.00" incLanes="g_0" intLanes=":9_0_0" shape="1138.87,4002.77 1140.47,4000.00 1138.87,3997.23">
        <request index="0" response="0" foes="0" cont="0"/>
    </junction>

    <connection from="a" to="b" fromLane="0" toLane="0" via=":12_0_0" dir="l" state="M"/>
    <connection from="a0" to="a" fromLane="0" toLane="0" via=":0_9_0" dir="r" state="m"/>
    <connection from="a00" to="a" fromLane="0" toLane="0" via=":0_10_0" dir="s" state="m"/>
    <connection from="a1" to="a" fromLane="0" toLane="0" via=":0_8_0" dir="r" state="m"/>
    <connection from="a2" to="a" fromLane="0" toLane="0" via=":0_7_0" dir="r" state="m"/>
    <connection from="a3" to="a" fromLane="0" toLane="0" via=":0_6_0" dir="r" state="m"/>
    <connection from="a4" to="a" fromLane="0" toLane="0" via=":0_5_0" dir="r" state="m"/>
    <connection from="a5" to="a" fromLane="0" toLane="0" via=":0_4_0" dir="r" state="m"/>
    <connection from="a6" to="a" fromLane="0" toLane="0" via=":0_3_0" dir="r" state="m"/>
    <connection from="a7" to="a" fromLane="0" toLane="0" via=":0_2_0" dir="r" state="m"/>
    <connection from="a8" to="a" fromLane="0" toLane="0" via=":0_1_0" dir="r" state="m"/>
    <connection from="a9" to="a" fromLane="0" toLane="0" via=":0_0_0" dir="r" state="M"/>
    <connection from="b" to="c" fromLane="0" toLane="0" via=":1_2_0" dir="s" state="m"/>
    <connection from="b" to="v" fromLane="0" toLane="0" via=":1_3_0" dir="l" state="m"/>
    <connection from="c" to="d" fromLane="0" toLane="0" via=":7_0_0" dir="r" state="M"/>
    <connection from="d" to="t" fromLane="0" toLane="0" via=":2_0_0" dir="r" state="M"/>
    <connection from="d" to="e" fromLane="0" toLane="0" via=":2_1_0" dir="s" state="M"/>
    <connection from="e" to="f" fromLane="0" toLane="0" via=":14_0_0" dir="l" state="M"/>
    <connection from="f" to="g" fromLane="0" toLane="0" via=":3_2_0" dir="s" state="m"/>
    <connection from="f" to="r" fromLane="0" toLane="0" via=":3_3_0" dir="l" state="m"/>
    <connection from="g" to="h" fromLane="0" toLane="0" via=":9_0_0" dir="r" state="M"/>
    <connection from="h" to="p" fromLane="0" toLane="0" via=":4_0_0" dir="r" state="M"/>
    <connection from="h" to="i" fromLane="0" toLane="0" via=":4_1_0" dir="s" state="M"/>
    <connection from="i" to="j" fromLane="0" toLane="0" via=":16_0_0" dir="l" state="M"/>
    <connection from="j" to="k" fromLane="0" toLane="0" via=":5_2_0" dir="s" state="m"/>
    <connection from="j" to="n" fromLane="0" toLane="0" via=":5_3_0" dir="l" state="m"/>
    <connection from="k" to="l" fromLane="0" toLane="0" via=":11_0_0" dir="r" state="M"/>
    <connection from="l" to="m" fromLane="0" toLane="0" via=":17_0_0" dir="r" state="M"/>
    <connection from="m" to="k" fromLane="0" toLane="0" via=":5_0_0" dir="r" state="M"/>
    <connection from="m" to="n" fromLane="0" toLane="0" via=":5_1_0" dir="s" state="M"/>
    <connection from="n" to="o" fromLane="0" toLane="0" via=":10_0_0" dir="l" state="M"/>
    <connection from="o" to="p" fromLane="0" toLane="0" via=":4_2_0" dir="s" state="m"/>
    <connection from="o" to="i" fromLane="0" toLane="0" via=":4_3_0" dir="l" state="m"/>
    <connection from="p" to="q" fromLane="0" toLane="0" via=":15_0_0" dir="r" state="M"/>
    <connection from="q" to="g" fromLane="0" toLane="0" via=":3_0_0" dir="r" state="M"/>
    <connection from="q" to="r" fromLane="0" toLane="0" via=":3_1_0" dir="s" state="M"/>
    <connection from="r" to="s" fromLane="0" toLane="0" via=":8_0_0" dir="l" state="M"/>
    <connection from="s" to="t" fromLane="0" toLane="0" via=":2_2_0" dir="s" state="m"/>
    <connection from="s" to="e" fromLane="0" toLane="0" via=":2_3_0" dir="l" state="m"/>
    <connection from="t" to="u" fromLane="0" toLane="0" via=":13_0_0" dir="r" state="M"/>
    <connection from="u" to="c" fromLane="0" toLane="0" via=":1_0_0" dir="r" state="M"/>
    <connection from="u" to="v" fromLane="0" toLane="0" via=":1_1_0" dir="s" state="M"/>
    <connection from="v" to="w" fromLane="0" toLane="0" via=":6_0_0" dir="l" state="M"/>
    <connection from="w" to="a" fromLane="0" toLane="0" via=":0_11_0" dir="l" state="m"/>

    <connection from=":0_0" to="a" fromLane="0" toLane="0" dir="s" state="M"/>
    <connection from=":0_1" to="a" fromLane="0" toLane="0" dir="s" state="M"/>
    <connection from=":0_2" to="a" fromLane="0" toLane="0" dir="s" state="M"/>
    <connection from=":0_3" to="a" fromLane="0" toLane="0" dir="s" state="M"/>
    <connection from=":0_4" to="a" fromLane="0" toLane="0" dir="s" state="M"/>
    <connection from=":0_5" to="a" fromLane="0" toLane="0" dir="s" state="M"/>
    <connection from=":0_6" to="a" fromLane="0" toLane="0" dir="s" state="M"/>
    <connection from=":0_7" to="a" fromLane="0" toLane="0" dir="s" state="M"/>
    <connection from=":0_8" to="a" fromLane="0" toLane="0" dir="s" state="M"/>
    <connection from=":0_9" to="a" fromLane="0" toLane="0" dir="s" state="M"/>
    <connection from=":0_10" to="a" fromLane="0" toLane="0" dir="s" state="M"/>
    <connection from=":0_11" to="a" fromLane="0" toLane="0" dir="s" state="M"/>
    <connection from=":1_0" to="c" fromLane="0" toLane="0" dir="s" state="M"/>
    <connection from=":1_1" to="v" fromLane="0" toLane="0" dir="s" state="M"/>
    <connection from=":1_2" to="c" fromLane="0" toLane="0" dir="s" state="M"/>
    <connection from=":1_3" to="v" fromLane="0" toLane="0" dir="s" state="M"/>
    <connection from=":10_0" to="o" fromLane="0" toLane="0" dir="s" state="M"/>
    <connection from=":11_0" to="l" fromLane="0" toLane="0" dir="s" state="M"/>
    <connection from=":12_0" to="b" fromLane="0" toLane="0" dir="s" state="M"/>
    <connection from=":13_0" to="u" fromLane="0" toLane="0" dir="s" state="M"/>
    <connection from=":14_0" to="f" fromLane="0" toLane="0" dir="s" state="M"/>
    <connection from=":15_0" to="q" fromLane="0" toLane="0" dir="s" state="M"/>
    <connection from=":16_0" to="j" fromLane="0" toLane="0" dir="s" state="M"/>
    <connection from=":17_0" to="m" fromLane="0" toLane="0" dir="s" state="M"/>
    <connection from=":2_0" to="t" fromLane="0" toLane="0" dir="s" state="M"/>
    <connection from=":2_1" to="e" fromLane="0" toLane="0" dir="s" state="M"/>
    <connection from=":2_2" to="t" fromLane="0" toLane="0" dir="s" state="M"/>
    <connection from=":2_3" to="e" fromLane="0" toLane="0" dir="s" state="M"/>
    <connection from=":3_0" to="g" fromLane="0" toLane="0" dir="s" state="M"/>
    <connection from=":3_1" to="r" fromLane="0" toLane="0" dir="s" state="M"/>
    <connection from=":3_2" to="g" fromLane="0" toLane="0" dir="s" state="M"/>
    <connection from=":3_3" to="r" fromLane="0" toLane="0" dir="s" state="M"/>