<?xml version="1.0" encoding="UTF-8"?>

<!-- generated on Fri May  8 09:08:54 2015 by SUMO netconvert Version 0.22.0
<?xml version="1.0" encoding="UTF-8"?>

<configuration xmlns:xsi="http://www.w3.org/2001/XMLSchema-instance" xsi:noNamespaceSchemaLocation="http://sumo.dlr.de/xsd/netconvertConfiguration.xsd">

    <input>
        <node-files value="scenario1.nod.xml"/>
        <edge-files value="scenario1.edg.xml"/>
        <type-files value="scenario1.typ.xml"/>
    </input>

    <output>
        <output-file value="output/scenario1.net.xml"/>
    </output>

</configuration>
-->

<net version="0.13" xmlns:xsi="http://www.w3.org/2001/XMLSchema-instance" xsi:noNamespaceSchemaLocation="http://sumo.dlr.de/xsd/net_file.xsd">

    <location netOffset="0.00,0.00" convBoundary="0.00,0.00,2866.03,6000.00" origBoundary="0.00,0.00,2866.03,6000.00" projParameter="!"/>

    <edge id=":0_0" function="internal">
        <lane id=":0_0_0" index="0" speed="25.00" length="36.35" shape="1990.72,506.91 1981.36,490.30 1981.03,482.11 1989.72,482.33 2007.45,490.96"/>
        <lane id=":0_0_1" index="1" speed="25.00" length="36.35" shape="1996.32,509.36 1988.43,495.61 1987.50,488.51 1993.54,488.06 2006.56,494.26"/>
        <lane id=":0_0_2" index="2" speed="25.00" length="36.35" shape="2001.88,511.74 1995.46,500.87 1993.96,494.89 1997.36,493.78 2005.68,497.56"/>
        <lane id=":0_0_3" index="3" speed="25.00" length="36.35" shape="2003.01,507.50 2000.01,502.41 1999.31,499.61 2000.90,499.09 2004.79,500.86"/>
    </edge>
    <edge id=":0_4" function="internal">
        <lane id=":0_4_0" index="0" speed="25.00" length="56.62" shape="1995.12,511.45 1971.39,485.68 1965.54,473.67 1977.56,475.43 2007.45,490.96"/>
        <lane id=":0_4_1" index="1" speed="25.00" length="56.62" shape="1996.83,508.49 1979.82,489.99 1975.77,481.45 1984.69,482.87 2006.56,494.26"/>
        <lane id=":0_4_2" index="2" speed="25.00" length="56.62" shape="2002.48,509.48 1990.47,496.52 1987.00,490.22 1992.07,490.56 2005.68,497.56"/>
        <lane id=":0_4_3" index="3" speed="25.00" length="56.62" shape="2003.47,505.80 1998.49,500.43 1997.05,497.82 1999.15,497.96 2004.79,500.86"/>
    </edge>
    <edge id=":0_8" function="internal">
        <lane id=":0_8_0" index="0" speed="25.00" length="27.00" shape="1995.46,510.86 2007.45,490.96"/>
        <lane id=":0_8_1" index="1" speed="25.00" length="27.00" shape="2002.01,511.25 2006.56,494.26"/>
        <lane id=":0_8_2" index="2" speed="25.00" length="27.00" shape="2002.91,507.89 2005.68,497.56"/>
        <lane id=":0_8_3" index="3" speed="25.00" length="27.00" shape="2003.81,504.52 1986.12,492.46 1980.38,487.83 1986.61,490.63 2004.79,500.86"/>
    </edge>
    <edge id=":0_12" function="internal">
        <lane id=":0_12_0" index="0" speed="25.00" length="4.51" shape="2003.99,503.84 2003.08,502.80 2002.90,501.95 2003.48,501.31 2004.79,500.86"/>
    </edge>
    <edge id=":0_13" function="internal">
        <lane id=":0_13_0" index="0" speed="25.00" length="13.16" shape="1995.56,510.69 2007.45,490.96"/>
        <lane id=":0_13_1" index="1" speed="25.00" length="13.16" shape="2002.25,510.35 2006.56,494.26"/>
        <lane id=":0_13_2" index="2" speed="25.00" length="13.16" shape="2003.12,507.10 2005.68,497.56"/>
        <lane id=":0_13_3" index="3" speed="25.00" length="13.16" shape="2003.99,503.84 2004.79,500.86"/>
    </edge>
    <edge id=":0_17" function="internal">
        <lane id=":0_17_0" index="0" speed="25.00" length="12.44" shape="2001.62,512.71 2007.45,490.96"/>
        <lane id=":0_17_1" index="1" speed="25.00" length="12.44" shape="2002.47,509.52 2006.56,494.26"/>
        <lane id=":0_17_2" index="2" speed="25.00" length="12.44" shape="2003.33,506.33 2005.68,497.56"/>
        <lane id=":0_17_3" index="3" speed="25.00" length="12.44" shape="2004.18,503.13 2004.79,500.86"/>
    </edge>
    <edge id=":0_21" function="internal">
        <lane id=":0_21_0" index="0" speed="25.00" length="13.39" shape="2001.72,512.34 2007.45,490.96"/>
        <lane id=":0_21_1" index="1" speed="25.00" length="13.39" shape="2002.57,509.15 2006.56,494.26"/>
        <lane id=":0_21_2" index="2" speed="25.00" length="13.39" shape="2003.43,505.96 2005.68,497.56"/>
        <lane id=":0_21_3" index="3" speed="25.00" length="13.39" shape="2004.28,502.77 2006.84,503.28 2007.78,503.14 2007.09,502.33 2004.79,500.86"/>
    </edge>
    <edge id=":0_25" function="internal">
        <lane id=":0_25_0" index="0" speed="25.00" length="11.30" shape="2001.93,511.55 2007.45,490.96"/>
        <lane id=":0_25_1" index="1" speed="25.00" length="11.30" shape="2002.81,508.25 2006.56,494.26"/>
        <lane id=":0_25_2" index="2" speed="25.00" length="11.30" shape="2003.70,504.95 2005.68,497.56"/>
        <lane id=":0_25_3" index="3" speed="25.00" length="11.30" shape="2004.58,501.65 2005.19,501.60 2005.42,501.45 2005.29,501.21 2004.79,500.86"/>
    </edge>
    <edge id=":0_29" function="internal">
        <lane id=":0_29_0" index="0" speed="25.00" length="11.30" shape="2001.93,511.55 2007.45,490.96"/>
        <lane id=":0_29_1" index="1" speed="25.00" length="11.30" shape="2002.81,508.25 2006.56,494.26"/>
        <lane id=":0_29_2" index="2" speed="25.00" length="11.30" shape="2003.70,504.95 2005.68,497.56"/>
        <lane id=":0_29_3" index="3" speed="25.00" length="11.30" shape="2004.58,501.65 2005.19,501.60 2005.42,501.45 2005.29,501.21 2004.79,500.86"/>
    </edge>
    <edge id=":0_33" function="internal">
        <lane id=":0_33_0" index="0" speed="25.00" length="13.54" shape="2001.93,511.55 2007.45,490.96"/>
        <lane id=":0_33_1" index="1" speed="25.00" length="13.54" shape="2002.81,508.25 2006.56,494.26"/>
        <lane id=":0_33_2" index="2" speed="25.00" length="13.54" shape="2003.70,504.95 2009.36,504.49 2011.58,503.10 2010.35,500.79 2005.68,497.56"/>
        <lane id=":0_33_3" index="3" speed="25.00" length="13.54" shape="2004.58,501.65 2005.19,501.60 2005.42,501.45 2005.29,501.21 2004.79,500.86"/>
    </edge>
    <edge id=":0_37" function="internal">
        <lane id=":0_37_0" index="0" speed="25.00" length="25.52" shape="1983.04,483.86 1990.51,485.37 1995.74,486.18 2000.72,487.60 2007.45,490.96"/>
        <lane id=":0_37_1" index="1" speed="25.00" length="25.52" shape="1982.24,487.06 1989.69,488.59 1994.90,489.43 1999.86,490.89 2006.56,494.26"/>
        <lane id=":0_37_2" index="2" speed="25.00" length="25.52" shape="1981.44,490.26 1988.87,491.80 1994.05,492.69 1998.99,494.18 2005.68,497.56"/>
        <lane id=":0_37_3" index="3" speed="25.00" length="25.52" shape="1980.64,493.46 1988.05,495.02 1993.21,495.94 1998.13,497.47 2004.79,500.86"/>
    </edge>
    <edge id=":0_41" function="internal">
        <lane id=":0_41_0" index="0" speed="25.00" length="23.96" shape="1981.21,497.51 1989.90,493.03 1997.16,490.45 2003.01,489.76 2007.45,490.96"/>
        <lane id=":0_41_1" index="1" speed="25.00" length="23.96" shape="1982.86,500.37 1990.77,496.28 1997.36,493.89 2002.62,493.22 2006.56,494.26"/>
        <lane id=":0_41_2" index="2" speed="25.00" length="23.96" shape="1984.51,503.23 1991.64,499.52 1997.55,497.34 2002.23,496.69 2005.68,497.56"/>
        <lane id=":0_41_3" index="3" speed="25.00" length="23.96" shape="1986.16,506.09 1992.51,502.76 1997.74,500.78 2001.83,500.15 2004.79,500.86"/>
    </edge>
    <edge id=":1_0" function="internal">
        <lane id=":1_0_0" index="0" speed="25.00" length="19.08" shape="2008.65,1518.33 2004.32,1516.46 2000.00,1515.83 1995.68,1516.46 1991.35,1518.33"/>
        <lane id=":1_0_1" index="1" speed="25.00" length="19.08" shape="2008.65,1518.33 2002.98,1515.56 1997.94,1514.17 1993.51,1514.14 1989.70,1515.47"/>
    </edge>
    <edge id=":1_2" function="internal">
        <lane id=":1_2_0" index="0" speed="25.00" length="25.97" shape="2010.30,1515.47 2003.41,1512.09 1998.35,1510.48 1993.29,1508.87 1986.40,1505.49"/>
        <lane id=":1_2_1" index="1" speed="25.00" length="25.97" shape="2011.95,1512.61 2005.06,1509.23 2000.00,1507.62 1994.94,1506.01 1988.05,1502.63"/>
        <lane id=":1_2_2" index="2" speed="25.00" length="25.97" shape="2013.60,1509.76 2006.71,1506.38 2001.65,1504.76 1996.59,1503.15 1989.70,1499.77"/>
    </edge>
    <edge id=":1_5" function="internal">
        <lane id=":1_5_0" index="0" speed="25.00" length="25.97" shape="2013.60,1505.49 2006.71,1508.87 2001.65,1510.48 1996.59,1512.09 1989.70,1515.47"/>
        <lane id=":1_5_1" index="1" speed="25.00" length="25.97" shape="2011.95,1502.63 2005.06,1506.01 2000.00,1507.62 1994.94,1509.23 1988.05,1512.61"/>
        <lane id=":1_5_2" index="2" speed="25.00" length="25.97" shape="2010.30,1499.77 2003.41,1503.15 1998.35,1504.76 1993.29,1506.38 1986.40,1509.76"/>
    </edge>
    <edge id=":1_8" function="internal">
        <lane id=":1_8_0" index="0" speed="25.00" length="19.08" shape="2008.65,1496.91 2002.98,1499.68 1997.94,1501.08 1993.51,1501.11 1989.70,1499.77"/>
        <lane id=":1_8_1" index="1" speed="25.00" length="19.08" shape="2008.65,1496.91 2004.32,1498.78 2000.00,1499.41 1995.68,1498.78 1991.35,1496.91"/>
    </edge>
    <edge id=":10_0" function="internal">
        <lane id=":10_0_0" index="0" speed="25.00" length="15.48" shape="1128.12,5009.96 1121.65,5004.98 1119.49,5000.00 1121.65,4995.02 1128.12,4990.04"/>
        <lane id=":10_0_1" index="1" speed="25.00" length="15.48" shape="1129.77,5007.10 1125.16,5003.55 1123.62,5000.00 1125.16,4996.45 1129.77,4992.90"/>
        <lane id=":10_0_2" index="2" speed="25.00" length="15.48" shape="1131.42,5004.24 1128.66,5002.12 1127.74,5000.00 1128.66,4997.88 1131.42,4995.76"/>
        <lane id=":10_0_3" index="3" speed="25.00" length="15.48" shape="1133.07,5001.39 1132.17,5000.69 1131.87,5000.00 1132.17,4999.31 1133.07,4998.61"/>
    </edge>
    <edge id=":11_0" function="internal">
        <lane id=":11_0_0" index="0" speed="25.00" length="25.49" shape="1140.28,6009.69 1153.72,6000.40 1157.25,5993.76 1150.87,5989.78 1134.59,5988.45"/>
        <lane id=":11_0_1" index="1" speed="25.00" length="25.49" shape="1139.39,6006.39 1148.66,5999.99 1151.10,5995.41 1146.70,5992.67 1135.47,5991.75"/>
        <lane id=":11_0_2" index="2" speed="25.00" length="25.49" shape="1138.51,6003.09 1143.60,5999.58 1144.94,5997.06 1142.52,5995.55 1136.35,5995.05"/>
        <lane id=":11_0_3" index="3" speed="25.00" length="25.49" shape="1137.63,5999.79 1138.54,5999.16 1138.78,5998.71 1138.35,5998.44 1137.24,5998.35"/>
    </edge>
    <edge id=":12_0" function="internal">
        <lane id=":12_0_0" index="0" speed="25.00" length="15.48" shape="2871.88,990.04 2878.35,995.02 2880.51,1000.00 2878.35,1004.98 2871.88,1009.96"/>
        <lane id=":12_0_1" index="1" speed="25.00" length="15.48" shape="2870.23,992.90 2874.84,996.45 2876.38,1000.00 2874.84,1003.55 2870.23,1007.10"/>
        <lane id=":12_0_2" index="2" speed="25.00" length="15.48" shape="2868.58,995.76 2871.34,997.88 2872.26,1000.00 2871.34,1002.12 2868.58,1004.24"/>
        <lane id=":12_0_3" index="3" speed="25.00" length="15.48" shape="2866.93,998.61 2867.83,999.31 2868.13,1000.00 2867.83,1000.69 2866.93,1001.39"/>
    </edge>
    <edge id=":13_0" function="internal">
        <lane id=":13_0_0" index="0" speed="25.00" length="15.48" shape="2840.53,2001.39 2841.43,2000.69 2841.73,2000.00 2841.43,1999.31 2840.53,1998.61"/>
        <lane id=":13_0_1" index="1" speed="25.00" length="15.48" shape="2842.18,2004.24 2844.94,2002.12 2845.85,2000.00 2844.94,1997.88 2842.18,1995.76"/>
        <lane id=":13_0_2" index="2" speed="25.00" length="15.48" shape="2843.83,2007.10 2848.44,2003.55 2849.98,2000.00 2848.44,1996.45 2843.83,1992.90"/>
        <lane id=":13_0_3" index="3" speed="25.00" length="15.48" shape="2845.48,2009.96 2851.95,2004.98 2854.10,2000.00 2851.95,1995.02 2845.48,1990.04"/>
    </edge>
    <edge id=":14_0" function="internal">
        <lane id=":14_0_0" index="0" speed="25.00" length="15.48" shape="2871.88,2990.04 2878.35,2995.02 2880.51,3000.00 2878.35,3004.98 2871.88,3009.96"/>
        <lane id=":14_0_1" index="1" speed="25.00" length="15.48" shape="2870.23,2992.90 2874.84,2996.45 2876.38,3000.00 2874.84,3003.55 2870.23,3007.10"/>
        <lane id=":14_0_2" index="2" speed="25.00" length="15.48" shape="2868.58,2995.76 2871.34,2997.88 2872.26,3000.00 2871.34,3002.12 2868.58,3004.24"/>
        <lane id=":14_0_3" index="3" speed="25.00" length="15.48" shape="2866.93,2998.61 2867.83,2999.31 2868.13,3000.00 2867.83,3000.69 2866.93,3001.39"/>
    </edge>
    <edge id=":15_0" function="internal">
        <lane id=":15_0_0" index="0" speed="25.00" length="15.48" shape="2840.53,4001.39 2841.43,4000.69 2841.73,4000.00 2841.43,3999.31 2840.53,3998.61"/>
        <lane id=":15_0_1" index="1" speed="25.00" length="15.48" shape="2842.18,4004.24 2844.94,4002.12 2845.85,4000.00 2844.94,3997.88 2842.18,3995.76"/>
        <lane id=":15_0_2" index="2" speed="25.00" length="15.48" shape="2843.83,4007.10 2848.44,4003.55 2849.98,4000.00 2848.44,3996.45 2843.83,3992.90"/>
        <lane id=":15_0_3" index="3" speed="25.00" length="15.48" shape="2845.48,4009.96 2851.95,4004.98 2854.10,4000.00 2851.95,3995.02 2845.48,3990.04"/>
    </edge>
    <edge id=":16_0" function="internal">
        <lane id=":16_0_0" index="0" speed="25.00" length="15.48" shape="2871.88,4990.04 2878.35,4995.02 2880.51,5000.00 2878.35,5004.98 2871.88,5009.96"/>
        <lane id=":16_0_1" index="1" speed="25.00" length="15.48" shape="2870.23,4992.90 2874.84,4996.45 2876.38,5000.00 2874.84,5003.55 2870.23,5007.10"/>
        <lane id=":16_0_2" index="2" speed="25.00" length="15.48" shape="2868.58,4995.76 2871.34,4997.88 2872.26,5000.00 2871.34,5002.12 2868.58,5004.24"/>
        <lane id=":16_0_3" index="3" speed="25.00" length="15.48" shape="2866.93,4998.61 2867.83,4999.31 2868.13,5000.00 2867.83,5000.69 2866.93,5001.39"/>
    </edge>
    <edge id=":17_0" function="internal">
        <lane id=":17_0_0" index="0" speed="25.00" length="25.49" shape="2865.41,5988.45 2849.13,5989.78 2842.75,5993.76 2846.28,6000.40 2859.72,6009.69"/>
        <lane id=":17_0_1" index="1" speed="25.00" length="25.49" shape="2864.53,5991.75 2853.30,5992.67 2848.90,5995.41 2851.34,5999.99 2860.61,6006.39"/>
        <lane id=":17_0_2" index="2" speed="25.00" length="25.49" shape="2863.65,5995.05 2857.48,5995.55 2855.06,5997.06 2856.40,5999.58 2861.49,6003.09"/>
        <lane id=":17_0_3" index="3" speed="25.00" length="25.49" shape="2862.76,5998.35 2861.65,5998.44 2861.22,5998.71 2861.46,5999.16 2862.37,5999.79"/>
    </edge>
    <edge id=":2_0" function="internal">
        <lane id=":2_0_0" index="0" speed="25.00" length="19.08" shape="1991.35,2481.67 1995.68,2483.54 2000.00,2484.17 2004.32,2483.54 2008.65,2481.67"/>
        <lane id=":2_0_1" index="1" speed="25.00" length="19.08" shape="1991.35,2481.67 1997.02,2484.44 2002.06,2485.83 2006.49,2485.86 2010.30,2484.53"/>
    </edge>
    <edge id=":2_2" function="internal">
        <lane id=":2_2_0" index="0" speed="25.00" length="25.97" shape="1989.70,2484.53 1996.59,2487.91 2001.65,2489.52 2006.71,2491.13 2013.60,2494.51"/>
        <lane id=":2_2_1" index="1" speed="25.00" length="25.97" shape="1988.05,2487.39 1994.94,2490.77 2000.00,2492.38 2005.06,2493.99 2011.95,2497.37"/>
        <lane id=":2_2_2" index="2" speed="25.00" length="25.97" shape="1986.40,2490.24 1993.29,2493.62 1998.35,2495.24 2003.41,2496.85 2010.30,2500.23"/>
    </edge>
    <edge id=":2_5" function="internal">
        <lane id=":2_5_0" index="0" speed="25.00" length="25.97" shape="1986.40,2494.51 1993.29,2491.13 1998.35,2489.52 2003.41,2487.91 2010.30,2484.53"/>
        <lane id=":2_5_1" index="1" speed="25.00" length="25.97" shape="1988.05,2497.37 1994.94,2493.99 2000.00,2492.38 2005.06,2490.77 2011.95,2487.39"/>
        <lane id=":2_5_2" index="2" speed="25.00" length="25.97" shape="1989.70,2500.23 1996.59,2496.85 2001.65,2495.24 2006.71,2493.62 2013.60,2490.24"/>
    </edge>
    <edge id=":2_8" function="internal">
        <lane id=":2_8_0" index="0" speed="25.00" length="19.08" shape="1991.35,2503.09 1997.02,2500.32 2002.06,2498.92 2006.49,2498.89 2010.30,2500.23"/>
        <lane id=":2_8_1" index="1" speed="25.00" length="19.08" shape="1991.35,2503.09 1995.68,2501.22 2000.00,2500.59 2004.32,2501.22 2008.65,2503.09"/>
    </edge>
    <edge id=":3_0" function="internal">
        <lane id=":3_0_0" index="0" speed="25.00" length="19.08" shape="2008.65,3518.33 2004.32,3516.46 2000.00,3515.83 1995.68,3516.46 1991.35,3518.33"/>
        <lane id=":3_0_1" index="1" speed="25.00" length="19.08" shape="2008.65,3518.33 2002.98,3515.56 1997.94,3514.17 1993.51,3514.14 1989.70,3515.47"/>
    </edge>
    <edge id=":3_2" function="internal">
        <lane id=":3_2_0" index="0" speed="25.00" length="25.97" shape="2010.30,3515.47 2003.41,3512.09 1998.35,3510.48 1993.29,3508.87 1986.40,3505.49"/>
        <lane id=":3_2_1" index="1" speed="25.00" length="25.97" shape="2011.95,3512.61 2005.06,3509.23 2000.00,3507.62 1994.94,3506.01 1988.05,3502.63"/>
        <lane id=":3_2_2" index="2" speed="25.00" length="25.97" shape="2013.60,3509.76 2006.71,3506.38 2001.65,3504.76 1996.59,3503.15 1989.70,3499.77"/>
    </edge>
    <edge id=":3_5" function="internal">
        <lane id=":3_5_0" index="0" speed="25.00" length="25.97" shape="2013.60,3505.49 2006.71,3508.87 2001.65,3510.48 1996.59,3512.09 1989.70,3515.47"/>
        <lane id=":3_5_1" index="1" speed="25.00" length="25.97" shape="2011.95,3502.63 2005.06,3506.01 2000.00,3507.62 1994.94,3509.23 1988.05,3512.61"/>
        <lane id=":3_5_2" index="2" speed="25.00" length="25.97" shape="2010.30,3499.77 2003.41,3503.15 1998.35,3504.76 1993.29,3506.38 1986.40,3509.76"/>
    </edge>
    <edge id=":3_8" function="internal">
        <lane id=":3_8_0" index="0" speed="25.00" length="19.08" shape="2008.65,3496.91 2002.98,3499.68 1997.94,3501.08 1993.51,3501.11 1989.70,3499.77"/>
        <lane id=":3_8_1" index="1" speed="25.00" length="19.08" shape="2008.65,3496.91 2004.32,3498.78 2000.00,3499.41 1995.68,3498.78 1991.35,3496.91"/>
    </edge>
    <edge id=":4_0" function="internal">
        <lane id=":4_0_0" index="0" speed="25.00" length="19.08" shape="1991.35,4481.67 1995.68,4483.54 2000.00,4484.17 2004.32,4483.54 2008.65,4481.67"/>
        <lane id=":4_0_1" index="1" speed="25.00" length="19.08" shape="1991.35,4481.67 1997.02,4484.44 2002.06,4485.83 2006.49,4485.86 2010.30,4484.53"/>
    </edge>
    <edge id=":4_2" function="internal">
        <lane id=":4_2_0" index="0" speed="25.00" length="25.97" shape="1989.70,4484.53 1996.59,4487.91 2001.65,4489.52 2006.71,4491.13 2013.60,4494.51"/>
        <lane id=":4_2_1" index="1" speed="25.00" length="25.97" shape="1988.05,4487.39 1994.94,4490.77 2000.00,4492.38 2005.06,4493.99 2011.95,4497.37"/>
        <lane id=":4_2_2" index="2" speed="25.00" length="25.97" shape="1986.40,4490.24 1993.29,4493.62 1998.35,4495.24 2003.41,4496.85 2010.30,4500.23"/>
    </edge>
    <edge id=":4_5" function="internal">
        <lane id=":4_5_0" index="0" speed="25.00" length="25.97" shape="1986.40,4494.51 1993.29,4491.13 1998.35,4489.52 2003.41,4487.91 2010.30,4484.53"/>
        <lane id=":4_5_1" index="1" speed="25.00" length="25.97" shape="1988.05,4497.37 1994.94,4493.99 2000.00,4492.38 2005.06,4490.77 2011.95,4487.39"/>
        <lane id=":4_5_2" index="2" speed="25.00" length="25.97" shape="1989.70,4500.23 1996.59,4496.85 2001.65,4495.24 2006.71,4493.62 2013.60,4490.24"/>
    </edge>
    <edge id=":4_8" function="internal">
        <lane id=":4_8_0" index="0" speed="25.00" length="19.08" shape="1991.35,4503.09 1997.02,4500.32 2002.06,4498.92 2006.49,4498.89 2010.30,4500.23"/>
        <lane id=":4_8_1" index="1" speed="25.00" length="19.08" shape="1991.35,4503.09 1995.68,4501.22 2000.00,4500.59 2004.32,4501.22 2008.65,4503.09"/>
    </edge>
    <edge id=":5_0" function="internal">
        <lane id=":5_0_0" index="0" speed="25.00" length="19.08" shape="2008.65,5518.33 2004.32,5516.46 2000.00,5515.83 1995.68,5516.46 1991.35,5518.33"/>
        <lane id=":5_0_1" index="1" speed="25.00" length="19.08" shape="2008.65,5518.33 2002.98,5515.56 1997.94,5514.17 1993.51,5514.14 1989.70,5515.47"/>
    </edge>
    <edge id=":5_2" function="internal">
        <lane id=":5_2_0" index="0" speed="25.00" length="25.97" shape="2010.30,5515.47 2003.41,5512.09 1998.35,5510.48 1993.29,5508.87 1986.40,5505.49"/>
        <lane id=":5_2_1" index="1" speed="25.00" length="25.97" shape="2011.95,5512.61 2005.06,5509.23 2000.00,5507.62 1994.94,5506.01 1988.05,5502.63"/>
        <lane id=":5_2_2" index="2" speed="25.00" length="25.97" shape="2013.60,5509.76 2006.71,5506.38 2001.65,5504.76 1996.59,5503.15 1989.70,5499.77"/>
    </edge>
    <edge id=":5_5" function="internal">
        <lane id=":5_5_0" index="0" speed="25.00" length="25.97" shape="2013.60,5505.49 2006.71,5508.87 2001.65,5510.48 1996.59,5512.09 1989.70,5515.47"/>
        <lane id=":5_5_1" index="1" speed="25.00" length="25.97" shape="2011.95,5502.63 2005.06,5506.01 2000.00,5507.62 1994.94,5509.23 1988.05,5512.61"/>
        <lane id=":5_5_2" index="2" speed="25.00" length="25.97" shape="2010.30,5499.77 2003.41,5503.15 1998.35,5504.76 1993.29,5506.38 1986.40,5509.76"/>
    </edge>
    <edge id=":5_8" function="internal">
        <lane id=":5_8_0" index="0" speed="25.00" length="19.08" shape="2008.65,5496.91 2002.98,5499.68 1997.94,5501.08 1993.51,5501.11 1989.70,5499.77"/>
        <lane id=":5_8_1" index="1" speed="25.00" length="19.08" shape="2008.65,5496.91 2004.32,5498.78 2000.00,5499.41 1995.68,5498.78 1991.35,5496.91"/>
    </edge>
    <edge id=":6_0" function="internal">
        <lane id=":6_0_0" index="0" speed="25.00" length="15.48" shape="1128.12,1009.96 1121.65,1004.98 1119.49,1000.00 1121.65,995.02 1128.12,990.04"/>
        <lane id=":6_0_1" index="1" speed="25.00" length="15.48" shape="1129.77,1007.10 1125.16,1003.55 1123.62,1000.00 1125.16,996.45 1129.77,992.90"/>
        <lane id=":6_0_2" index="2" speed="25.00" length="15.48" shape="1131.42,1004.24 1128.66,1002.12 1127.74,1000.00 1128.66,997.88 1131.42,995.76"/>
        <lane id=":6_0_3" index="3" speed="25.00" length="15.48" shape="1133.07,1001.39 1132.17,1000.69 1131.87,1000.00 1132.17,999.31 1133.07,998.61"/>
    </edge>
    <edge id=":7_0" function="internal">
        <lane id=":7_0_0" index="0" speed="25.00" length="15.48" shape="1159.47,1998.61 1158.57,1999.31 1158.27,2000.00 1158.57,2000.69 1159.47,2001.39"/>
        <lane id=":7_0_1" index="1" speed="25.00" length="15.48" shape="1157.82,1995.76 1155.06,1997.88 1154.15,2000.00 1155.06,2002.12 1157.82,2004.24"/>
        <lane id=":7_0_2" index="2" speed="25.00" length="15.48" shape="1156.17,1992.90 1151.56,1996.45 1150.02,2000.00 1151.56,2003.55 1156.17,2007.10"/>
        <lane id=":7_0_3" index="3" speed="25.00" length="15.48" shape="1154.52,1990.04 1148.05,1995.02 1145.90,2000.00 1148.05,2004.98 1154.52,2009.96"/>
    </edge>
    <edge id=":8_0" function="internal">
        <lane id=":8_0_0" index="0" speed="25.00" length="15.48" shape="1128.12,3009.96 1121.65,3004.98 1119.49,3000.00 1121.65,2995.02 1128.12,2990.04"/>
        <lane id=":8_0_1" index="1" speed="25.00" length="15.48" shape="1129.77,3007.10 1125.16,3003.55 1123.62,3000.00 1125.16,2996.45 1129.77,2992.90"/>
        <lane id=":8_0_2" index="2" speed="25.00" length="15.48" shape="1131.42,3004.24 1128.66,3002.12 1127.74,3000.00 1128.66,2997.88 1131.42,2995.76"/>
        <lane id=":8_0_3" index="3" speed="25.00" length="15.48" shape="1133.07,3001.39 1132.17,3000.69 1131.87,3000.00 1132.17,2999.31 1133.07,2998.61"/>
    </edge>
    <edge id=":9_0" function="internal">
        <lane id=":9_0_0" index="0" speed="25.00" length="15.48" shape="1159.47,3998.61 1158.57,3999.31 1158.27,4000.00 1158.57,4000.69 1159.47,4001.39"/>
        <lane id=":9_0_1" index="1" speed="25.00" length="15.48" shape="1157.82,3995.76 1155.06,3997.88 1154.15,4000.00 1155.06,4002.12 1157.82,4004.24"/>
        <lane id=":9_0_2" index="2" speed="25.00" length="15.48" shape="1156.17,3992.90 1151.56,3996.45 1150.02,4000.00 1151.56,4003.55 1156.17,4007.10"/>
        <lane id=":9_0_3" index="3" speed="25.00" length="15.48" shape="1154.52,3990.04 1148.05,3995.02 1145.90,4000.00 1148.05,4004.98 1154.52,4009.96"/>
    </edge>

    <edge id="a" from="0" to="12" priority="1" type="a">
        <lane id="a_0" index="0" speed="25.00" length="996.84" shape="2007.45,490.96 2871.88,990.04"/>
        <lane id="a_1" index="1" speed="25.00" length="996.84" shape="2006.56,494.26 2870.23,992.90"/>
        <lane id="a_2" index="2" speed="25.00" length="996.84" shape="2005.68,497.56 2868.58,995.76"/>
        <lane id="a_3" index="3" speed="25.00" length="996.84" shape="2004.79,500.86 2866.93,998.61"/>
    </edge>
    <edge id="a0" from="00" to="0" priority="1" type="a">
        <lane id="a0_0" index="0" speed="25.00" length="6.74" shape="2010.00,511.55 2001.93,511.55"/>
        <lane id="a0_1" index="1" speed="25.00" length="6.74" shape="2010.00,508.25 2002.81,508.25"/>
        <lane id="a0_2" index="2" speed="25.00" length="6.74" shape="2010.00,504.95 2003.70,504.95"/>
        <lane id="a0_3" index="3" speed="25.00" length="6.74" shape="2010.00,501.65 2004.58,501.65"/>
    </edge>
    <edge id="a00" from="000" to="0" priority="1" type="a">
        <lane id="a00_0" index="0" speed="25.00" length="2041.19" shape="2.80,-11.21 1983.04,483.86"/>
        <lane id="a00_1" index="1" speed="25.00" length="2041.19" shape="2.00,-8.00 1982.24,487.06"/>
        <lane id="a00_2" index="2" speed="25.00" length="2041.19" shape="1.20,-4.80 1981.44,490.26"/>
        <lane id="a00_3" index="3" speed="25.00" length="2041.19" shape="0.40,-1.60 1980.64,493.46"/>
    </edge>
    <edge id="a1" from="01" to="0" priority="1" type="a">
        <lane id="a1_0" index="0" speed="25.00" length="11.74" shape="2015.00,511.55 2001.93,511.55"/>
        <lane id="a1_1" index="1" speed="25.00" length="11.74" shape="2015.00,508.25 2002.81,508.25"/>
        <lane id="a1_2" index="2" speed="25.00" length="11.74" shape="2015.00,504.95 2003.70,504.95"/>
        <lane id="a1_3" index="3" speed="25.00" length="11.74" shape="2015.00,501.65 2004.58,501.65"/>
    </edge>
    <edge id="a2" from="02" to="0" priority="1" type="a">
        <lane id="a2_0" index="0" speed="25.00" length="16.74" shape="2020.00,511.55 2001.93,511.55"/>
        <lane id="a2_1" index="1" speed="25.00" length="16.74" shape="2020.00,508.25 2002.81,508.25"/>
        <lane id="a2_2" index="2" speed="25.00" length="16.74" shape="2020.00,504.95 2003.70,504.95"/>
        <lane id="a2_3" index="3" speed="25.00" length="16.74" shape="2020.00,501.65 2004.58,501.65"/>
    </edge>
    <edge id="a3" from="03" to="0" priority="1" type="a">
        <lane id="a3_0" index="0" speed="25.00" length="6.50" shape="2004.83,515.33 1995.56,510.69"/>
        <lane id="a3_1" index="1" speed="25.00" length="6.50" shape="2006.31,512.38 2002.25,510.35"/>
        <lane id="a3_2" index="2" speed="25.00" length="6.50" shape="2007.79,509.43 2003.12,507.10"/>
        <lane id="a3_3" index="3" speed="25.00" length="6.50" shape="2009.26,506.48 2003.99,503.84"/>
    </edge>
    <edge id="a4" from="04" to="0" priority="1" type="a">
        <lane id="a4_0" index="0" speed="25.00" length="10.55" shape="2011.35,515.96 2001.62,512.71"/>
        <lane id="a4_1" index="1" speed="25.00" length="10.55" shape="2012.39,512.83 2002.47,509.52"/>
        <lane id="a4_2" index="2" speed="25.00" length="10.55" shape="2013.43,509.70 2003.33,506.33"/>
        <lane id="a4_3" index="3" speed="25.00" length="10.55" shape="2014.48,506.57 2004.18,503.13"/>
    </edge>
    <edge id="a5" from="05" to="0" priority="1" type="a">
        <lane id="a5_0" index="0" speed="25.00" length="15.87" shape="2017.20,516.21 2001.72,512.34"/>
        <lane id="a5_1" index="1" speed="25.00" length="15.87" shape="2018.00,513.00 2002.57,509.15"/>
        <lane id="a5_2" index="2" speed="25.00" length="15.87" shape="2018.80,509.80 2003.43,505.96"/>
        <lane id="a5_3" index="3" speed="25.00" length="15.87" shape="2019.60,506.60 2004.28,502.77"/>
    </edge>
    <edge id="a6" from="06" to="0" priority="1" type="a">
        <lane id="a6_0" index="0" speed="25.00" length="8.29" shape="2001.83,518.17 1995.12,511.45"/>
        <lane id="a6_1" index="1" speed="25.00" length="8.29" shape="2004.17,515.83 1996.83,508.49"/>
        <lane id="a6_2" index="2" speed="25.00" length="8.29" shape="2006.50,513.50 2002.48,509.48"/>
        <lane id="a6_3" index="3" speed="25.00" length="8.29" shape="2008.83,511.17 2003.47,505.80"/>
    </edge>
    <edge id="a7" from="07" to="0" priority="1" type="a">
        <lane id="a7_0" index="0" speed="25.00" length="12.37" shape="2008.59,519.61 1995.46,510.86"/>
        <lane id="a7_1" index="1" speed="25.00" length="12.37" shape="2010.42,516.86 2002.01,511.25"/>
        <lane id="a7_2" index="2" speed="25.00" length="12.37" shape="2012.25,514.12 2002.91,507.89"/>
        <lane id="a7_3" index="3" speed="25.00" length="12.37" shape="2014.08,511.37 2003.81,504.52"/>
    </edge>
    <edge id="a8" from="08" to="0" priority="1" type="a">
        <lane id="a8_0" index="0" speed="25.00" length="17.68" shape="2014.83,520.33 1995.56,510.69"/>
        <lane id="a8_1" index="1" speed="25.00" length="17.68" shape="2016.31,517.38 2002.25,510.35"/>
        <lane id="a8_2" index="2" speed="25.00" length="17.68" shape="2017.79,514.43 2003.12,507.10"/>
        <lane id="a8_3" index="3" speed="25.00" length="17.68" shape="2019.26,511.48 2003.99,503.84"/>
    </edge>
    <edge id="a9" from="09" to="0" priority="1" type="a">
        <lane id="a9_0" index="0" speed="25.00" length="11.76" shape="2000.39,521.41 1990.72,506.91"/>
        <lane id="a9_1" index="1" speed="25.00" length="11.76" shape="2003.14,519.58 1996.32,509.36"/>
        <lane id="a9_2" index="2" speed="25.00" length="11.76" shape="2005.88,517.75 2001.88,511.74"/>
        <lane id="a9_3" index="3" speed="25.00" length="11.76" shape="2008.63,515.92 2003.01,507.50"/>
    </edge>