<?xml version="1.0" encoding="UTF-8"?>

<!-- generated on Fri May  8 08:57:00 2015 by SUMO netconvert Version 0.22.0
<?xml version="1.0" encoding="UTF-8"?>

<configuration xmlns:xsi="http://www.w3.org/2001/XMLSchema-instance" xsi:noNamespaceSchemaLocation="http://sumo.dlr.de/xsd/netconvertConfiguration.xsd">

    <input>
        <node-files value="scenario3.nod.xml"/>
        <edge-files value="scenario3.edg.xml"/>
        <type-files value="scenario3.typ.xml"/>
    </input>

    <output>
        <output-file value="output/scenario3.net.xml"/>
    </output>

</configuration>
-->

<net version="0.13" xmlns:xsi="http://www.w3.org/2001/XMLSchema-instance" xsi:noNamespaceSchemaLocation="http://sumo.dlr.de/xsd/net_file.xsd">

    <location netOffset="0.00,0.00" convBoundary="0.00,0.00,2866.03,4505.00" origBoundary="0.00,0.00,2866.03,4505.00" projParameter="!"/>

    <edge id=":0_0" function="internal">
        <lane id=":0_0_0" index="0" speed="8.30" length="11.08" shape="1988.45,501.45 1989.15,505.87 1991.26,509.02 1994.77,510.92 1999.68,511.55"/>
        <lane id=":0_0_1" index="1" speed="8.30" length="11.08" shape="1991.75,501.45 1992.18,504.43 1993.48,506.55 1995.65,507.82 1998.67,508.25"/>
        <lane id=":0_0_2" index="2" speed="8.30" length="11.08" shape="1995.05,501.45 1995.21,502.98 1995.70,504.08 1996.52,504.73 1997.67,504.95"/>
    </edge>
    <edge id=":0_3" function="internal">
        <lane id=":0_3_0" index="0" speed="8.30" length="11.17" shape="1998.35,507.19 1998.65,503.32 1999.54,500.56 2001.03,498.90 2003.12,498.35"/>
    </edge>
    <edge id=":0_4" function="internal">
        <lane id=":0_4_0" index="0" speed="8.30" length="2.97" shape="2000.16,488.14 2003.12,488.45"/>
    </edge>
    <edge id=":0_5" function="internal">
        <lane id=":0_5_0" index="0" speed="8.30" length="46.44" shape="1993.04,489.75 2021.13,497.85 2031.44,503.63 2023.95,507.09 1998.67,508.25"/>
        <lane id=":0_5_1" index="1" speed="8.30" length="46.44" shape="1994.16,493.44 2011.65,498.47 2018.06,502.07 2013.40,504.23 1997.67,504.95"/>
        <lane id=":0_5_2" index="2" speed="8.30" length="46.44" shape="1995.28,497.12 2002.16,499.10 2004.69,500.52 2002.85,501.37 1996.66,501.65"/>
    </edge>
    <edge id=":0_8" function="internal">
        <lane id=":0_8_0" index="0" speed="8.30" length="6.74" shape="2000.16,488.45 2003.12,488.45"/>
        <lane id=":0_8_1" index="1" speed="8.30" length="6.74" shape="1993.84,491.75 2003.12,491.75"/>
        <lane id=":0_8_2" index="2" speed="8.30" length="6.74" shape="1995.85,495.05 2003.12,495.05"/>
        <lane id=":0_8_3" index="3" speed="8.30" length="6.74" shape="1995.66,498.35 2003.12,498.35"/>
    </edge>
    <edge id=":0_12" function="internal">
        <lane id=":0_12_0" index="0" speed="8.30" length="5.04" shape="1995.66,498.35 1997.15,498.80 1997.81,499.50 1997.65,500.45 1996.66,501.65"/>
    </edge>
    <edge id=":0_13" function="internal">
        <lane id=":0_13_0" index="0" speed="8.30" length="13.52" shape="2000.16,488.45 1998.67,508.25"/>
        <lane id=":0_13_1" index="1" speed="8.30" length="13.52" shape="1993.64,491.75 1997.67,504.95"/>
        <lane id=":0_13_2" index="2" speed="8.30" length="13.52" shape="1994.65,495.05 1996.66,501.65"/>
    </edge>
    <edge id=":0_16" function="internal">
        <lane id=":0_16_0" index="0" speed="8.30" length="9.96" shape="1995.66,498.35 2003.12,491.75"/>
    </edge>
    <edge id=":0_17" function="internal">
        <lane id=":0_17_0" index="0" speed="8.30" length="13.52" shape="2000.16,488.45 1998.67,508.25"/>
        <lane id=":0_17_1" index="1" speed="8.30" length="13.52" shape="1993.64,491.75 1997.67,504.95"/>
        <lane id=":0_17_2" index="2" speed="8.30" length="13.52" shape="1994.65,495.05 1996.66,501.65"/>
    </edge>
    <edge id=":0_20" function="internal">
        <lane id=":0_20_0" index="0" speed="8.30" length="8.16" shape="1995.66,498.35 2003.12,495.05"/>
    </edge>
    <edge id=":0_21" function="internal">
        <lane id=":0_21_0" index="0" speed="8.30" length="15.25" shape="1993.25,490.46 1999.68,511.55"/>
        <lane id=":0_21_1" index="1" speed="8.30" length="15.25" shape="1994.23,493.66 1998.67,508.25"/>
        <lane id=":0_21_2" index="2" speed="8.30" length="15.25" shape="1995.20,496.86 1997.67,504.95"/>
    </edge>
    <edge id=":0_24" function="internal">
        <lane id=":0_24_0" index="0" speed="8.30" length="12.01" shape="1993.41,501.45 1996.30,499.35 1998.03,497.27 1999.88,495.68 2003.12,495.05"/>
    </edge>
    <edge id=":0_25" function="internal">
        <lane id=":0_25_0" index="0" speed="8.30" length="14.22" shape="1993.24,490.43 1999.68,511.55"/>
        <lane id=":0_25_1" index="1" speed="8.30" length="14.22" shape="1987.02,501.31 1998.67,508.25"/>
        <lane id=":0_25_2" index="2" speed="8.30" length="14.22" shape="1994.07,498.93 1997.67,504.95"/>
    </edge>
    <edge id=":0_28" function="internal">
        <lane id=":0_28_0" index="0" speed="8.30" length="7.57" shape="1996.22,501.45 2003.12,498.35"/>
    </edge>
    <edge id=":1_0" function="internal">
        <lane id=":1_0_0" index="0" speed="8.30" length="0.10" shape="1988.45,1500.00 1988.45,1500.00"/>
        <lane id=":1_0_1" index="1" speed="8.30" length="0.10" shape="1991.75,1500.00 1991.75,1500.00"/>
        <lane id=":1_0_2" index="2" speed="8.30" length="0.10" shape="1995.05,1500.00 1995.05,1500.00"/>
        <lane id=":1_0_3" index="3" speed="8.30" length="0.10" shape="1998.35,1500.00 1998.35,1500.00"/>
    </edge>
    <edge id=":10_0" function="internal">
        <lane id=":10_0_0" index="0" speed="8.30" length="0.10" shape="1122.42,3500.00 1122.42,3500.00"/>
        <lane id=":10_0_1" index="1" speed="8.30" length="0.10" shape="1125.72,3500.00 1125.72,3500.00"/>
        <lane id=":10_0_2" index="2" speed="8.30" length="0.10" shape="1129.02,3500.00 1129.02,3500.00"/>
        <lane id=":10_0_3" index="3" speed="8.30" length="0.10" shape="1132.32,3500.00 1132.32,3500.00"/>
    </edge>
    <edge id=":11_0" function="internal">
        <lane id=":11_0_0" index="0" speed="8.30" length="10.56" shape="1133.92,4511.55 1128.89,4510.83 1125.30,4508.68 1123.14,4505.08 1122.42,4500.05"/>
        <lane id=":11_0_1" index="1" speed="8.30" length="10.56" shape="1133.92,4508.25 1130.33,4507.74 1127.77,4506.20 1126.23,4503.64 1125.72,4500.05"/>
        <lane id=":11_0_2" index="2" speed="8.30" length="10.56" shape="1133.92,4504.95 1131.78,4504.64 1130.24,4503.72 1129.33,4502.19 1129.02,4500.05"/>
        <lane id=":11_0_3" index="3" speed="8.30" length="10.56" shape="1133.92,4501.65 1133.22,4501.55 1132.72,4501.25 1132.42,4500.75 1132.32,4500.05"/>
    </edge>
    <edge id=":12_0" function="internal">
        <lane id=":12_0_0" index="0" speed="8.30" length="10.56" shape="2866.08,488.45 2871.11,489.17 2874.71,491.32 2876.86,494.92 2877.58,499.95"/>
        <lane id=":12_0_1" index="1" speed="8.30" length="10.56" shape="2866.08,491.75 2869.67,492.26 2872.23,493.80 2873.77,496.36 2874.28,499.95"/>
        <lane id=":12_0_2" index="2" speed="8.30" length="10.56" shape="2866.08,495.05 2868.22,495.36 2869.76,496.28 2870.67,497.81 2870.98,499.95"/>
        <lane id=":12_0_3" index="3" speed="8.30" length="10.56" shape="2866.08,498.35 2866.78,498.45 2867.28,498.75 2867.58,499.25 2867.68,499.95"/>
    </edge>
    <edge id=":13_0" function="internal">
        <lane id=":13_0_0" index="0" speed="8.30" length="0.10" shape="2877.58,1500.00 2877.58,1500.00"/>
        <lane id=":13_0_1" index="1" speed="8.30" length="0.10" shape="2874.28,1500.00 2874.28,1500.00"/>
        <lane id=":13_0_2" index="2" speed="8.30" length="0.10" shape="2870.98,1500.00 2870.98,1500.00"/>
        <lane id=":13_0_3" index="3" speed="8.30" length="0.10" shape="2867.68,1500.00 2867.68,1500.00"/>
    </edge>
    <edge id=":14_0" function="internal">
        <lane id=":14_0_0" index="0" speed="8.30" length="12.98" shape="2854.48,2514.65 2854.29,2513.29 2853.70,2512.32 2852.74,2511.74 2851.38,2511.55"/>
        <lane id=":14_0_1" index="1" speed="8.30" length="12.98" shape="2857.78,2514.65 2857.38,2511.85 2856.18,2509.85 2854.18,2508.65 2851.38,2508.25"/>
        <lane id=":14_0_2" index="2" speed="8.30" length="12.98" shape="2861.08,2514.65 2860.47,2510.41 2858.66,2507.38 2855.62,2505.56 2851.38,2504.95"/>
        <lane id=":14_0_3" index="3" speed="8.30" length="12.98" shape="2864.38,2514.65 2863.57,2508.96 2861.13,2504.90 2857.07,2502.46 2851.38,2501.65"/>
    </edge>
    <edge id=":14_4" function="internal">
        <lane id=":14_4_0" index="0" speed="8.30" length="4.82" shape="2864.38,2514.65 2865.21,2513.41 2866.03,2513.00 2866.86,2513.41 2867.68,2514.65"/>
    </edge>
    <edge id=":14_5" function="internal">
        <lane id=":14_5_0" index="0" speed="8.30" length="29.30" shape="2877.58,2485.35 2877.58,2494.05 2877.58,2500.00 2877.58,2505.95 2877.58,2514.65"/>
        <lane id=":14_5_1" index="1" speed="8.30" length="29.30" shape="2874.28,2485.35 2874.28,2494.05 2874.28,2500.00 2874.28,2505.95 2874.28,2514.65"/>
        <lane id=":14_5_2" index="2" speed="8.30" length="29.30" shape="2870.98,2485.35 2870.98,2494.05 2870.98,2500.00 2870.98,2505.95 2870.98,2514.65"/>
    </edge>
    <edge id=":14_8" function="internal">
        <lane id=":14_8_0" index="0" speed="8.30" length="27.64" shape="2867.68,2485.35 2866.66,2493.92 2863.61,2500.05 2858.51,2503.72 2851.38,2504.95"/>
        <lane id=":14_8_1" index="1" speed="8.30" length="27.64" shape="2867.68,2485.35 2866.66,2492.48 2863.61,2497.57 2858.51,2500.63 2851.38,2501.65"/>
    </edge>
    <edge id=":14_10" function="internal">
        <lane id=":14_10_0" index="0" speed="8.30" length="34.27" shape="2851.38,2488.45 2862.84,2490.09 2871.03,2495.00 2875.94,2503.19 2877.58,2514.65"/>
        <lane id=":14_10_1" index="1" speed="8.30" length="34.27" shape="2851.38,2491.75 2861.40,2493.18 2868.56,2497.47 2872.85,2504.63 2874.28,2514.65"/>
        <lane id=":14_10_2" index="2" speed="8.30" length="34.27" shape="2851.38,2495.05 2859.96,2496.28 2866.08,2499.95 2869.76,2506.08 2870.98,2514.65"/>
        <lane id=":14_10_3" index="3" speed="8.30" length="34.27" shape="2851.38,2498.35 2858.51,2499.37 2863.61,2502.42 2866.66,2507.52 2867.68,2514.65"/>
    </edge>
    <edge id=":14_14" function="internal">
        <lane id=":14_14_0" index="0" speed="8.30" length="4.82" shape="2851.38,2498.35 2852.62,2499.17 2853.03,2500.00 2852.62,2500.82 2851.38,2501.65"/>
    </edge>
    <edge id=":16_0" function="internal">
        <lane id=":16_0_0" index="0" speed="8.30" length="0.10" shape="2854.48,3500.00 2854.48,3500.00"/>
        <lane id=":16_0_1" index="1" speed="8.30" length="0.10" shape="2857.78,3500.00 2857.78,3500.00"/>
        <lane id=":16_0_2" index="2" speed="8.30" length="0.10" shape="2861.08,3500.00 2861.08,3500.00"/>
        <lane id=":16_0_3" index="3" speed="8.30" length="0.10" shape="2864.38,3500.00 2864.38,3500.00"/>
    </edge>
    <edge id=":16_4" function="internal">
        <lane id=":16_4_0" index="0" speed="8.30" length="4.82" shape="2864.38,3500.00 2865.21,3498.76 2866.03,3498.35 2866.86,3498.76 2867.68,3500.00"/>
    </edge>
    <edge id=":16_5" function="internal">
        <lane id=":16_5_0" index="0" speed="8.30" length="0.10" shape="2877.58,3500.00 2877.58,3500.00"/>
        <lane id=":16_5_1" index="1" speed="8.30" length="0.10" shape="2874.28,3500.00 2874.28,3500.00"/>
        <lane id=":16_5_2" index="2" speed="8.30" length="0.10" shape="2870.98,3500.00 2870.98,3500.00"/>
        <lane id=":16_5_3" index="3" speed="8.30" length="0.10" shape="2867.68,3500.00 2867.68,3500.00"/>
    </edge>
    <edge id=":16_9" function="internal">
        <lane id=":16_9_0" index="0" speed="8.30" length="4.82" shape="2867.68,3500.00 2866.86,3501.24 2866.03,3501.65 2865.20,3501.24 2864.38,3500.00"/>
    </edge>
    <edge id=":17_0" function="internal">
        <lane id=":17_0_0" index="0" speed="8.30" length="4.82" shape="2867.68,4485.35 2866.86,4486.59 2866.03,4487.00 2865.20,4486.59 2864.38,4485.35"/>
    </edge>
    <edge id=":17_1" function="internal">
        <lane id=":17_1_0" index="0" speed="8.30" length="12.98" shape="2851.38,4488.45 2852.74,4488.26 2853.70,4487.67 2854.29,4486.71 2854.48,4485.35"/>
        <lane id=":17_1_1" index="1" speed="8.30" length="12.98" shape="2851.38,4491.75 2854.18,4491.35 2856.18,4490.15 2857.38,4488.15 2857.78,4485.35"/>
        <lane id=":17_1_2" index="2" speed="8.30" length="12.98" shape="2851.38,4495.05 2855.62,4494.44 2858.66,4492.62 2860.47,4489.59 2861.08,4485.35"/>
        <lane id=":17_1_3" index="3" speed="8.30" length="12.98" shape="2851.38,4498.35 2857.07,4497.54 2861.13,4495.10 2863.57,4491.04 2864.38,4485.35"/>
    </edge>
    <edge id=":2_0" function="internal">
        <lane id=":2_0_0" index="0" speed="8.30" length="9.73" shape="2001.45,2511.55 2005.87,2511.74 2009.02,2512.33 2010.92,2513.29 2011.55,2514.65"/>
        <lane id=":2_0_1" index="1" speed="8.30" length="9.73" shape="2001.45,2511.55 2004.42,2511.74 2006.55,2512.33 2007.83,2513.29 2008.25,2514.65"/>
    </edge>
    <edge id=":2_2" function="internal">
        <lane id=":2_2_0" index="0" speed="8.30" length="3.27" shape="2001.45,2511.55 1998.55,2511.55"/>
        <lane id=":2_2_1" index="1" speed="8.30" length="3.27" shape="2001.45,2508.25 1998.55,2508.25"/>
        <lane id=":2_2_2" index="2" speed="8.30" length="3.27" shape="2001.45,2504.95 1998.55,2504.95"/>
        <lane id=":2_2_3" index="3" speed="8.30" length="3.27" shape="2001.45,2504.95 1998.55,2501.65"/>
    </edge>
    <edge id=":2_6" function="internal">
        <lane id=":2_6_0" index="0" speed="8.30" length="11.55" shape="2001.45,2501.65 1998.65,2500.63 1996.65,2497.58 1995.45,2492.48 1995.05,2485.35"/>
        <lane id=":2_6_1" index="1" speed="8.30" length="11.55" shape="2001.45,2501.65 2000.09,2500.63 1999.37,2498.35"/>
    </edge>
    <edge id=":2_8" function="internal">
        <lane id=":2_8_0" index="0" speed="8.30" length="2.41" shape="2001.45,2501.65 2000.21,2500.83 1999.80,2500.00"/>
    </edge>
    <edge id=":2_18" function="internal">
        <lane id=":2_18_0" index="0" speed="8.30" length="13.07" shape="1999.37,2498.35 1999.12,2497.58 1998.54,2492.48 1998.35,2485.35"/>
    </edge>
    <edge id=":2_19" function="internal">
        <lane id=":2_19_0" index="0" speed="8.30" length="2.41" shape="1999.80,2500.00 2000.21,2499.18 2001.45,2498.35"/>
    </edge>
    <edge id=":2_9" function="internal">
        <lane id=":2_9_0" index="0" speed="8.30" length="9.73" shape="1998.55,2488.45 1994.13,2488.26 1990.98,2487.67 1989.08,2486.71 1988.45,2485.35"/>
        <lane id=":2_9_1" index="1" speed="8.30" length="9.73" shape="1998.55,2488.45 1995.58,2488.26 1993.45,2487.67 1992.17,2486.71 1991.75,2485.35"/>
    </edge>
    <edge id=":2_11" function="internal">
        <lane id=":2_11_0" index="0" speed="8.30" length="2.90" shape="1998.55,2488.45 2001.45,2488.45"/>
        <lane id=":2_11_1" index="1" speed="8.30" length="2.90" shape="1998.55,2491.75 2001.45,2491.75"/>
        <lane id=":2_11_2" index="2" speed="8.30" length="2.90" shape="1998.55,2495.05 2001.45,2495.05"/>
        <lane id=":2_11_3" index="3" speed="8.30" length="2.90" shape="1998.55,2498.35 2001.45,2498.35"/>
    </edge>
    <edge id=":2_15" function="internal">
        <lane id=":2_15_0" index="0" speed="8.30" length="13.04" shape="1998.55,2498.35 2001.35,2499.37 2003.35,2502.42 2004.55,2507.52 2004.95,2514.65"/>
        <lane id=":2_15_1" index="1" speed="8.30" length="13.04" shape="1998.55,2498.35 1999.91,2499.37 2000.88,2502.42 2001.12,2504.57"/>
    </edge>
    <edge id=":2_17" function="internal">
        <lane id=":2_17_0" index="0" speed="8.30" length="2.41" shape="1998.55,2498.35 1999.79,2499.17 2000.20,2500.00"/>
    </edge>
    <edge id=":2_20" function="internal">
        <lane id=":2_20_0" index="0" speed="8.30" length="10.10" shape="2001.12,2504.57 2001.46,2507.52 2001.65,2514.65"/>
    </edge>
    <edge id=":2_21" function="internal">
        <lane id=":2_21_0" index="0" speed="8.30" length="2.41" shape="2000.20,2500.00 1999.79,2500.82 1998.55,2501.65"/>
    </edge>
    <edge id=":4_0" function="internal">
        <lane id=":4_0_0" index="0" speed="8.30" length="0.10" shape="2011.55,3500.00 2011.55,3500.00"/>
        <lane id=":4_0_1" index="1" speed="8.30" length="0.10" shape="2008.25,3500.00 2008.25,3500.00"/>
        <lane id=":4_0_2" index="2" speed="8.30" length="0.10" shape="2004.95,3500.00 2004.95,3500.00"/>
        <lane id=":4_0_3" index="3" speed="8.30" length="0.10" shape="2001.65,3500.00 2001.65,3500.00"/>
    </edge>
    <edge id=":5_0" function="internal">
        <lane id=":5_0_0" index="0" speed="8.30" length="3.68" shape="1994.26,4510.60 1993.05,4511.55"/>
        <lane id=":5_0_1" index="1" speed="8.30" length="3.68" shape="1996.60,4508.26 1993.05,4508.25"/>
        <lane id=":5_0_2" index="2" speed="8.30" length="3.68" shape="1998.93,4505.93 1993.05,4504.95"/>
    </edge>
    <edge id=":5_3" function="internal">
        <lane id=":5_3_0" index="0" speed="8.30" length="26.10" shape="2001.26,4503.60 1997.62,4498.41 1998.53,4494.71 2004.00,4492.49 2014.02,4491.75"/>
    </edge>
    <edge id=":5_4" function="internal">
        <lane id=":5_4_0" index="0" speed="8.30" length="10.79" shape="1997.94,4511.88 1993.05,4511.55"/>
        <lane id=":5_4_1" index="1" speed="8.30" length="10.79" shape="2005.44,4511.94 2001.98,4510.15 1999.50,4509.01 1996.90,4508.42 1993.05,4508.25"/>
        <lane id=":5_4_2" index="2" speed="8.30" length="10.79" shape="2006.59,4508.83 2002.81,4506.89 2000.10,4505.71 1997.25,4505.11 1993.05,4504.95"/>
    </edge>
    <edge id=":5_7" function="internal">
        <lane id=":5_7_0" index="0" speed="8.30" length="28.13" shape="2007.73,4505.71 2000.10,4501.05 1998.54,4497.71 2003.04,4495.72 2013.60,4495.05"/>
    </edge>
    <edge id=":5_8" function="internal">
        <lane id=":5_8_0" index="0" speed="8.30" length="11.62" shape="2002.40,4511.55 1993.05,4511.55"/>
        <lane id=":5_8_1" index="1" speed="8.30" length="11.62" shape="2002.40,4508.25 1993.05,4508.25"/>
        <lane id=":5_8_2" index="2" speed="8.30" length="11.62" shape="2004.88,4504.95 2001.37,4504.95 1998.96,4504.95 1996.56,4504.95 1993.05,4504.95"/>
        <lane id=":5_8_3" index="3" speed="8.30" length="11.62" shape="2009.02,4501.65 2004.28,4501.65 2001.04,4501.65 1997.79,4501.65 1993.05,4501.65"/>
    </edge>
    <edge id=":5_12" function="internal">
        <lane id=":5_12_0" index="0" speed="8.30" length="7.75" shape="2009.02,4501.65 2008.82,4499.27 2009.45,4497.92 2010.90,4497.62 2013.18,4498.35"/>
    </edge>
    <edge id=":5_13" function="internal">
        <lane id=":5_13_0" index="0" speed="8.30" length="18.34" shape="2005.59,4511.55 2013.60,4495.05"/>
    </edge>
    <edge id=":5_14" function="internal">
        <lane id=":5_14_0" index="0" speed="8.30" length="14.96" shape="2006.80,4508.25 2002.72,4508.25 1999.93,4508.25 1997.13,4508.25 1993.05,4508.25"/>
        <lane id=":5_14_1" index="1" speed="8.30" length="14.96" shape="2008.01,4504.95 2003.57,4504.95 2000.53,4504.95 1997.49,4504.95 1993.05,4504.95"/>
        <lane id=":5_14_2" index="2" speed="8.30" length="14.96" shape="2009.22,4501.65 2004.42,4501.65 2001.14,4501.65 1997.85,4501.65 1993.05,4501.65"/>
    </edge>
    <edge id=":5_17" function="internal">
        <lane id=":5_17_0" index="0" speed="8.30" length="15.23" shape="2005.59,4511.55 2013.18,4498.35"/>
    </edge>
    <edge id=":5_18" function="internal">
        <lane id=":5_18_0" index="0" speed="8.30" length="14.96" shape="2006.80,4508.25 2002.72,4508.25 1999.93,4508.25 1997.13,4508.25 1993.05,4508.25"/>
        <lane id=":5_18_1" index="1" speed="8.30" length="14.96" shape="2008.01,4504.95 2003.57,4504.95 2000.53,4504.95 1997.49,4504.95 1993.05,4504.95"/>
        <lane id=":5_18_2" index="2" speed="8.30" length="14.96" shape="2009.22,4501.65 2004.42,4501.65 2001.14,4501.65 1997.85,4501.65 1993.05,4501.65"/>
    </edge>
    <edge id=":5_21" function="internal">
        <lane id=":5_21_0" index="0" speed="8.30" length="9.47" shape="2011.55,4495.30 2011.73,4492.30 2012.27,4490.16 2013.18,4488.88 2014.44,4488.45"/>
        <lane id=":5_21_1" index="1" speed="8.30" length="9.47" shape="2008.25,4498.55 2008.61,4495.57 2009.69,4493.45 2011.50,4492.18 2014.02,4491.75"/>
        <lane id=":5_21_2" index="2" speed="8.30" length="9.47" shape="2004.95,4498.55 2005.49,4497.02 2007.11,4495.93 2009.81,4495.27 2013.60,4495.05"/>
    </edge>
    <edge id=":5_24" function="internal">
        <lane id=":5_24_0" index="0" speed="8.30" length="9.85" shape="2001.65,4498.55 2001.11,4499.91 1999.50,4500.88 1996.81,4501.46 1993.05,4501.65"/>
    </edge>
    <edge id=":6_0" function="internal">
        <lane id=":6_0_0" index="0" speed="8.30" length="4.82" shape="1132.32,514.65 1133.14,513.41 1133.97,513.00 1134.80,513.41 1135.62,514.65"/>
    </edge>
    <edge id=":6_1" function="internal">
        <lane id=":6_1_0" index="0" speed="8.30" length="12.98" shape="1148.62,511.55 1147.26,511.74 1146.30,512.33 1145.71,513.29 1145.52,514.65"/>
        <lane id=":6_1_1" index="1" speed="8.30" length="12.98" shape="1148.62,508.25 1145.82,508.65 1143.82,509.85 1142.62,511.85 1142.22,514.65"/>
        <lane id=":6_1_2" index="2" speed="8.30" length="12.98" shape="1148.62,504.95 1144.38,505.56 1141.35,507.38 1139.53,510.41 1138.92,514.65"/>
        <lane id=":6_1_3" index="3" speed="8.30" length="12.98" shape="1148.62,501.65 1142.93,502.46 1138.87,504.90 1136.43,508.96 1135.62,514.65"/>
    </edge>
    <edge id=":7_0" function="internal">
        <lane id=":7_0_0" index="0" speed="8.30" length="0.10" shape="1122.42,1500.00 1122.42,1500.00"/>
        <lane id=":7_0_1" index="1" speed="8.30" length="0.10" shape="1125.72,1500.00 1125.72,1500.00"/>
        <lane id=":7_0_2" index="2" speed="8.30" length="0.10" shape="1129.02,1500.00 1129.02,1500.00"/>
        <lane id=":7_0_3" index="3" speed="8.30" length="0.10" shape="1132.32,1500.00 1132.32,1500.00"/>
    </edge>
    <edge id=":7_4" function="internal">
        <lane id=":7_4_0" index="0" speed="8.30" length="4.82" shape="1132.32,1500.00 1133.14,1498.76 1133.97,1498.35 1134.80,1498.76 1135.62,1500.00"/>
    </edge>
    <edge id=":7_5" function="internal">
        <lane id=":7_5_0" index="0" speed="8.30" length="0.10" shape="1145.52,1500.00 1145.52,1500.00"/>
        <lane id=":7_5_1" index="1" speed="8.30" length="0.10" shape="1142.22,1500.00 1142.22,1500.00"/>
        <lane id=":7_5_2" index="2" speed="8.30" length="0.10" shape="1138.92,1500.00 1138.92,1500.00"/>
        <lane id=":7_5_3" index="3" speed="8.30" length="0.10" shape="1135.62,1500.00 1135.62,1500.00"/>
    </edge>
    <edge id=":7_9" function="internal">
        <lane id=":7_9_0" index="0" speed="8.30" length="4.82" shape="1135.62,1500.00 1134.80,1501.24 1133.97,1501.65 1133.14,1501.24 1132.32,1500.00"/>
    </edge>
    <edge id=":8_0" function="internal">
        <lane id=":8_0_0" index="0" speed="8.30" length="29.42" shape="1122.42,2514.65 1122.42,2505.95 1122.42,2500.00 1122.42,2494.05 1122.42,2485.35"/>
        <lane id=":8_0_1" index="1" speed="8.30" length="29.42" shape="1122.42,2514.65 1122.94,2505.93 1124.07,2500.00 1125.20,2494.07 1125.72,2485.35"/>
    </edge>
    <edge id=":8_2" function="internal">
        <lane id=":8_2_0" index="0" speed="8.30" length="25.31" shape="1125.72,2514.65 1127.15,2504.63 1131.44,2497.47 1137.95,2493.57"/>
        <lane id=":8_2_1" index="1" speed="8.30" length="25.31" shape="1129.02,2514.65 1130.24,2506.08 1133.92,2499.95 1140.04,2496.28 1140.68,2496.18"/>
        <lane id=":8_2_2" index="2" speed="8.30" length="25.31" shape="1132.32,2514.65 1133.34,2507.52 1136.39,2502.43 1141.49,2499.37 1148.62,2498.35"/>
    </edge>
    <edge id=":8_15" function="internal">
        <lane id=":8_15_0" index="0" speed="8.30" length="10.88" shape="1137.95,2493.57 1138.60,2493.18 1148.62,2491.75"/>
    </edge>
    <edge id=":8_16" function="internal">
        <lane id=":8_16_0" index="0" speed="8.30" length="8.02" shape="1140.68,2496.18 1148.62,2495.05"/>
    </edge>
    <edge id=":8_5" function="internal">
        <lane id=":8_5_0" index="0" speed="8.30" length="34.27" shape="1148.62,2511.55 1137.16,2509.91 1128.97,2505.00 1124.06,2496.81 1122.42,2485.35"/>
        <lane id=":8_5_1" index="1" speed="8.30" length="34.27" shape="1148.62,2508.25 1138.60,2506.82 1131.44,2502.53 1127.15,2495.37 1125.72,2485.35"/>
        <lane id=":8_5_2" index="2" speed="8.30" length="34.27" shape="1148.62,2504.95 1140.04,2503.72 1133.92,2500.05 1130.24,2493.92 1129.02,2485.35"/>
        <lane id=":8_5_3" index="3" speed="8.30" length="34.27" shape="1148.62,2501.65 1141.49,2500.63 1136.39,2497.58 1133.34,2492.48 1132.32,2485.35"/>
    </edge>
    <edge id=":8_9" function="internal">
        <lane id=":8_9_0" index="0" speed="8.30" length="4.82" shape="1148.62,2501.65 1147.38,2500.83 1146.97,2500.00 1147.38,2499.18 1148.62,2498.35"/>
    </edge>
    <edge id=":8_10" function="internal">
        <lane id=":8_10_0" index="0" speed="8.30" length="12.98" shape="1145.52,2485.35 1145.71,2486.71 1146.30,2487.68 1147.26,2488.26 1148.62,2488.45"/>
        <lane id=":8_10_1" index="1" speed="8.30" length="12.98" shape="1142.22,2485.35 1142.62,2488.15 1143.82,2490.15 1145.82,2491.35 1148.62,2491.75"/>
        <lane id=":8_10_2" index="2" speed="8.30" length="12.98" shape="1138.92,2485.35 1139.53,2489.59 1141.35,2492.62 1144.38,2494.44 1148.62,2495.05"/>
        <lane id=":8_10_3" index="3" speed="8.30" length="12.98" shape="1135.62,2485.35 1136.43,2491.04 1138.87,2495.10 1142.93,2497.54 1148.62,2498.35"/>
    </edge>
    <edge id=":8_14" function="internal">
        <lane id=":8_14_0" index="0" speed="8.30" length="2.41" shape="1135.62,2485.35 1134.80,2486.59 1133.97,2487.00"/>
    </edge>
    <edge id=":8_17" function="internal">
        <lane id=":8_17_0" index="0" speed="8.30" length="2.41" shape="1133.97,2487.00 1133.14,2486.59 1132.32,2485.35"/>
    </edge>

    <edge id="a" from="0" to="12" priority="1" type="a">
        <lane id="a_0" index="0" speed="8.30" length="862.96" shape="2003.12,488.45 2866.08,488.45"/>
        <lane id="a_1" index="1" speed="8.30" length="862.96" shape="2003.12,491.75 2866.08,491.75"/>
        <lane id="a_2" index="2" speed="8.30" length="862.96" shape="2003.12,495.05 2866.08,495.05"/>
        <lane id="a_3" index="3" speed="8.30" length="862.96" shape="2003.12,498.35 2866.08,498.35"/>
    </edge>
    <edge id="a0" from="00" to="0" priority="1" type="a">
        <lane id="a0_0" index="0" speed="8.30" length="1.72" shape="1995.00,488.45 2000.16,488.45"/>
        <lane id="a0_1" index="1" speed="8.30" length="1.72" shape="1993.64,491.75 1993.84,491.75"/>
        <lane id="a0_2" index="2" speed="8.30" length="1.72" shape="1995.00,495.05 1995.85,495.05"/>
        <lane id="a0_3" index="3" speed="8.30" length="1.72" shape="1995.00,498.35 1995.66,498.35"/>
    </edge>
    <edge id="a00" from="000" to="0" priority="1" type="a">
        <lane id="a00_0" index="0" speed="8.30" length="2055.43" shape="2.80,-11.21 2000.16,488.14"/>
        <lane id="a00_1" index="1" speed="8.30" length="2055.43" shape="2.00,-8.00 1993.04,489.75"/>
        <lane id="a00_2" index="2" speed="8.30" length="2055.43" shape="1.20,-4.80 1994.16,493.44"/>
        <lane id="a00_3" index="3" speed="8.30" length="2055.43" shape="0.40,-1.60 1995.28,497.12"/>
    </edge>
    <edge id="a1" from="01" to="0" priority="1" type="a">
        <lane id="a1_0" index="0" speed="8.30" length="6.03" shape="1990.00,488.45 2000.16,488.45"/>
        <lane id="a1_1" index="1" speed="8.30" length="6.03" shape="1990.00,491.75 1993.64,491.75"/>
        <lane id="a1_2" index="2" speed="8.30" length="6.03" shape="1990.00,495.05 1994.65,495.05"/>
        <lane id="a1_3" index="3" speed="8.30" length="6.03" shape="1990.00,498.35 1995.66,498.35"/>
    </edge>
    <edge id="a2" from="02" to="0" priority="1" type="a">
        <lane id="a2_0" index="0" speed="8.30" length="11.03" shape="1985.00,488.45 2000.16,488.45"/>
        <lane id="a2_1" index="1" speed="8.30" length="11.03" shape="1985.00,491.75 1993.64,491.75"/>
        <lane id="a2_2" index="2" speed="8.30" length="11.03" shape="1985.00,495.05 1994.65,495.05"/>
        <lane id="a2_3" index="3" speed="8.30" length="11.03" shape="1985.00,498.35 1995.66,498.35"/>
    </edge>
    <edge id="a3" from="03" to="0" priority="1" type="a">
        <lane id="a3_0" index="0" speed="8.30" length="3.21" shape="1986.83,496.83 1993.24,490.43"/>
        <lane id="a3_1" index="1" speed="8.30" length="3.21" shape="1986.88,501.45 1987.02,501.31"/>
        <lane id="a3_2" index="2" speed="8.30" length="3.21" shape="1993.93,499.07 1994.07,498.93"/>
        <lane id="a3_3" index="3" speed="8.30" length="3.21" shape="1993.83,503.83 1996.22,501.45"/>
    </edge>
    <edge id="a4" from="04" to="0" priority="1" type="a">
        <lane id="a4_0" index="0" speed="8.30" length="7.80" shape="1984.83,494.67 1993.25,490.46"/>
        <lane id="a4_1" index="1" speed="8.30" length="7.80" shape="1986.31,497.62 1994.23,493.66"/>
        <lane id="a4_2" index="2" speed="8.30" length="7.80" shape="1987.79,500.57 1995.20,496.86"/>
        <lane id="a4_3" index="3" speed="8.30" length="7.80" shape="1989.26,503.52 1993.41,501.45"/>
    </edge>
    <edge id="a5" from="05" to="5" priority="1" type="a">
        <lane id="a5_0" index="0" speed="8.30" length="0.18" shape="2002.60,4511.55 2002.40,4511.55"/>
        <lane id="a5_1" index="1" speed="8.30" length="0.18" shape="2002.60,4508.25 2002.40,4508.25"/>
        <lane id="a5_2" index="2" speed="8.30" length="0.18" shape="2005.00,4504.95 2004.88,4504.95"/>
        <lane id="a5_3" index="3" speed="8.30" length="0.18" shape="2009.22,4501.65 2009.02,4501.65"/>
    </edge>
    <edge id="a6" from="06" to="5" priority="1" type="a">
        <lane id="a6_0" index="0" speed="8.30" length="2.60" shape="2010.00,4511.55 2005.59,4511.55"/>