<?xml version="1.0" encoding="UTF-8"?>
<types>
   <type id="a" priority="1" numLanes="4" speed="8.3"/>
   <type id="b" priority="3" numLanes="4" speed="8.3"/>
</types>
