<?xml version="1.0" encoding="UTF-8"?>
<routes>
	<vType departSpeed="max" accel="25.0" decel="0.5" id="CarA" length="5.0" minGap="0.5" maxSpeed="25.0" sigma="0.5" />

	<route id="route00" edges="a0 a b c d e f g h i j k l m n o p q r s t u v w" />
	<route id="route01" edges="a1 a b c d e f g h i j k l m n o p q r s t u v w" />
	<route id="route02" edges="a2 a b c d e f g h i j k l m n o p q r s t u v w" />
	<route id="route03" edges="a3 a b c d e f g h i j k l m n o p q r s t u v w" />
	<route id="route04" edges="a4 a b c d e f g h i j k l m n o p q r s t u v w" />
	<route id="route05" edges="a5 a b c d e f g h i j k l m n o p q r s t u v w" />
	<route id="route06" edges="a6 a b c d e f g h i j k l m n o p q r s t u v w" />
	<route id="route07" edges="a7 a b c d e f g h i j k l m n o p q r s t u v w" />
	<route id="route08" edges="a8 a b c d e f g h i j k l m n o p q r s t u v w" />
	<route id="route09" edges="a9 a b c d e f g h i j k l m n o p q r s t u v w" />

	<vehicle depart="0.0" id="veh0" route="route00" type="CarA" color="1,0,0" /> 
	<vehicle depart="0.0" id="veh1" route="route01" type="CarA" color="1,0,0" /> 
	<vehicle depart="0.0" id="veh2" route="route02" type="CarA" color="1,0,0" /> 
	<vehicle depart="0.0" id="veh3" route="route03" type="CarA" color="1,0,0" /> 
	<vehicle depart="0.0" id="veh4" route="route04" type="CarA" color="1,0,0" /> 
	<vehicle depart="0.0" id="veh5" route="route05" type="CarA" color="1,0,0" /> 
	<vehicle depart="0.0" id="veh6" route="route06" type="CarA" color="1,0,0" /> 
	<vehicle depart="0.0" id="veh7" route="route07" type="CarA" color="1,0,0" /> 
	<vehicle depart="0.0" id="veh8" route="route08" type="CarA" color="1,0,0" /> 
	<vehicle depart="0.0" id="veh9" route="route09" type="CarA" color="1,0,0" /> 
</routes>
