<?xml version="1.0" encoding="UTF-8"?>

<!-- generated on Fri May 29 01:32:19 2015 by SUMO polyconvert Version 0.23.0
<?xml version="1.0" encoding="UTF-8"?>

<configuration xmlns:xsi="http://www.w3.org/2001/XMLSchema-instance" xsi:noNamespaceSchemaLocation="http://sumo.dlr.de/xsd/polyconvertConfiguration.xsd">

    <input>
        <net-file value="KarradaIn.net.xml"/>
        <osm-files value="KarradaIn.osm"/>
        <type-file value="typemap.xml"/>
    </input>

    <output>
        <output-file value="KarradaIn.poly.xml"/>
    </output>

</configuration>
-->

<additional xmlns:xsi="http://www.w3.org/2001/XMLSchema-instance" xsi:noNamespaceSchemaLocation="http://sumo.dlr.de/xsd/additional_file.xsd">
    <location netOffset="-444499.47,-3683237.16" convBoundary="-83.15,-0.00,5782.44,3350.35" origBoundary="44.403050,33.286768,44.465953,33.317158" projParameter="+proj=utm +zone=38 +ellps=WGS84 +datum=WGS84 +units=m +no_defs"/>

    <poly id="223455896" type="boundary.administrative" color="128,0,51" fill="0" layer="-12.00" shape="5098.87,2469.91 4998.54,2348.85 3314.18,1580.93"/>
    <poly id="223462612" type="boundary.administrative" color="128,0,51" fill="0" layer="-12.00" shape="3314.18,1580.93 -83.15,33.12"/>
    <poly id="223462613" type="boundary.administrative" color="128,0,51" fill="0" layer="-12.00" shape="2082.59,3114.52 2589.67,1979.15 3314.18,1580.93"/>
    <poly id="223462617" type="boundary.administrative" color="128,0,51" fill="0" layer="-12.00" shape="3314.18,1580.93 4434.94,986.32 4668.81,700.29"/>
    <poly id="4074591" type="unknown" color="51,128,255" fill="1" layer="-1.00" shape="3285.33,1529.65 3302.28,1522.51 3313.96,1521.16 3331.02,1523.91 3350.86,1535.86 3363.45,1554.53 3367.12,1575.62 3363.05,1594.25 3360.54,1599.41 3348.98,1613.66 3336.17,1621.89 3312.56,1626.63 3292.23,1621.93 3271.44,1605.12 3262.74,1586.65 3261.46,1568.37 3265.96,1552.91 3268.28,1547.52 3285.33,1529.65"/>
    <poly id="4074592" type="unknown" color="51,128,255" fill="0" layer="-1.00" shape="4286.33,1039.69 4187.73,1095.87 4087.13,1150.10 3998.51,1203.27 3917.83,1247.43 3838.15,1290.61 3705.69,1365.88 3615.07,1418.07 3515.47,1471.29 3424.84,1521.49 3363.45,1554.53 3325.18,1575.57 3320.36,1578.22 3271.44,1605.12 3114.11,1691.17 3034.93,1734.85 2985.65,1764.44 2931.37,1793.07 2855.19,1835.74 2671.94,1941.38 2627.17,1967.20"/>
    <poly id="4074593" type="unknown" color="51,128,255" fill="0" layer="-1.00" shape="2626.06,1946.33 2842.11,1819.90 2914.47,1779.37 3012.41,1724.54 3262.74,1586.65 3297.91,1566.38 3301.89,1564.09 3350.86,1535.86 3487.93,1458.52 3584.55,1406.30 3682.16,1354.58 3771.29,1303.89 3822.09,1276.78 3900.77,1232.61 3974.97,1190.46 4049.15,1146.32 4120.33,1105.44 4164.91,1080.88 4193.57,1065.52 4255.32,1032.89 4346.96,982.69 4418.72,950.49"/>
    <poly id="4214032" type="unknown" color="51,128,255" fill="0" layer="-1.00" shape="16.39,-0.00 52.75,43.19 251.11,140.51 320.21,170.95 409.85,209.71 428.19,217.08 483.87,243.04 502.49,249.95 564.63,285.40 789.98,387.04 952.23,461.70 1011.33,490.19 1069.43,518.71 1121.51,542.28 1160.50,560.39 1202.53,579.90 1309.80,629.72 1418.97,678.33 1466.04,700.94 1533.16,732.88 1718.44,819.34 1832.60,870.41 1927.75,915.63 2013.89,957.91 2127.06,1009.98 2194.16,1041.43 2253.25,1068.94 2322.36,1102.37 2384.45,1130.86 2444.54,1160.36 2506.63,1188.86 2579.73,1221.27 2652.82,1253.68 2718.92,1285.14 2769.01,1309.72 2808.34,1325.41 2820.95,1331.40 2865.14,1355.92 3016.35,1424.70 3268.28,1547.52 3301.89,1564.09 3325.18,1575.57 3363.05,1594.25 3699.30,1745.14 3750.27,1750.83"/>
    <poly id="4214036" type="unknown" color="51,128,255" fill="1" layer="-1.00" shape="3744.20,1814.53 3731.53,1793.30 3730.00,1774.83 3738.26,1762.68 3750.27,1750.83 3778.00,1742.34 3805.79,1750.57 3824.83,1764.40 3836.32,1776.72 3839.26,1803.66 3830.62,1819.53 3817.42,1829.62 3786.24,1832.20 3763.41,1825.30 3744.20,1814.53"/>
    <poly id="4214037" type="unknown" color="51,128,255" fill="1" layer="-1.00" shape="4249.13,2061.55 4230.86,2058.92 4213.86,2049.52 4199.25,2030.17 4194.91,2007.56 4198.81,1989.48 4210.78,1971.84 4230.99,1959.66 4248.66,1957.05 4268.95,1961.64 4284.06,1971.88 4294.92,1987.05 4299.71,2004.57 4298.67,2020.65 4289.41,2040.66 4271.53,2055.74 4249.13,2061.55"/>
    <poly id="4214038" type="unknown" color="51,128,255" fill="0" layer="-1.00" shape="4827.65,2289.55 4722.54,2243.38 4653.44,2208.95 4612.39,2191.27 4595.37,2183.40 4571.34,2172.59 4321.00,2051.63 4289.41,2040.66"/>
    <poly id="4214039" type="unknown" color="51,128,255" fill="0" layer="-1.00" shape="4298.67,2020.65 4323.91,2034.72 4449.07,2092.71 4593.27,2161.55 4616.29,2172.36 4633.31,2180.22 4673.36,2198.90 4716.42,2219.55 4760.47,2239.20 4835.56,2274.60"/>
    <poly id="4214040" type="unknown" color="51,128,255" fill="0" layer="-1.00" shape="4198.81,1989.48 3953.52,1879.59 3860.41,1836.35 3817.42,1829.62"/>
    <poly id="4214041" type="unknown" color="51,128,255" fill="0" layer="-1.00" shape="3839.26,1803.66 3868.32,1822.38 4210.78,1971.84"/>
    <poly id="4214044" type="unknown" color="51,128,255" fill="0" layer="-1.00" shape="4835.56,2274.60 4984.76,2347.38 5039.87,2380.90 5090.00,2416.43 5137.13,2453.96 5317.89,2643.89"/>
    <poly id="4214045" type="unknown" color="51,128,255" fill="0" layer="-1.00" shape="5282.85,2627.17 5125.19,2462.97 5076.07,2426.44 5031.94,2392.87 4979.84,2361.33 4827.65,2289.55"/>
    <poly id="4239994" type="unknown" color="51,128,255" fill="0" layer="-1.00" shape="3145.84,2228.17 3343.62,2323.04"/>
    <poly id="4239995" type="unknown" color="51,128,255" fill="0" layer="-1.00" shape="3163.95,2158.98 3393.24,2264.12"/>
    <poly id="4239996" type="unknown" color="51,128,255" fill="0" layer="-1.00" shape="3185.00,2079.33 3447.81,2196.22"/>
    <poly id="4239997" type="unknown" color="51,128,255" fill="0" layer="-1.00" shape="3205.07,2004.67 3486.48,2142.33"/>
    <poly id="4239998" type="unknown" color="51,128,255" fill="0" layer="-1.00" shape="3223.15,1931.01 3531.13,2087.42"/>
    <poly id="4239999" type="unknown" color="51,128,255" fill="0" layer="-1.00" shape="3247.13,1838.42 3420.39,1925.97 3592.64,2009.55"/>
    <poly id="4240000" type="unknown" color="51,128,255" fill="0" layer="-1.00" shape="3267.22,1767.72 3455.00,1860.17 3639.26,1948.65"/>
    <poly id="4240001" type="unknown" color="51,128,255" fill="0" layer="-1.00" shape="3290.20,1675.64 3493.98,1771.97 3696.81,1876.77"/>
    <poly id="4240002" type="unknown" color="51,128,255" fill="0" layer="-1.00" shape="3420.39,1925.97 3455.00,1860.17 3493.98,1771.97 3540.12,1677.99"/>
    <poly id="4240003" type="unknown" color="51,128,255" fill="0" layer="-1.00" shape="3114.11,1691.17 3252.70,1761.34"/>
    <poly id="4240004" type="unknown" color="51,128,255" fill="0" layer="-1.00" shape="3034.93,1734.85 3233.10,1832.03"/>
    <poly id="4240005" type="unknown" color="51,128,255" fill="0" layer="-1.00" shape="2931.37,1793.07 2966.79,1809.61 3208.64,1925.62"/>
    <poly id="4240006" type="unknown" color="51,128,255" fill="0" layer="-1.00" shape="2941.66,1872.88 3010.77,1907.29 3190.03,1993.81"/>
    <poly id="4240008" type="unknown" color="51,128,255" fill="0" layer="-1.00" shape="2909.16,1957.06 2978.26,1989.49 3168.99,2074.45"/>
    <poly id="4240037" type="unknown" color="51,128,255" fill="0" layer="-1.00" shape="3013.85,2661.82 3018.75,2645.88 3035.33,2571.23 3060.73,2465.72 3076.35,2399.04 3103.83,2309.42 3117.05,2259.15 3126.33,2221.32 3145.43,2150.63 3168.99,2074.45 3190.03,1993.81 3208.64,1925.62 3233.10,1832.03 3252.70,1761.34 3292.23,1621.93"/>
    <poly id="4240038" type="unknown" color="51,128,255" fill="0" layer="-1.00" shape="3312.56,1626.63 3299.49,1639.30 3290.20,1675.64 3267.22,1767.72 3247.13,1838.42 3223.15,1931.01 3205.07,2004.67 3185.00,2079.33 3163.95,2158.98 3145.84,2228.17 3121.85,2315.29 3098.40,2411.84 3084.73,2470.56 3045.55,2613.93 3043.70,2639.78 3065.80,2664.52"/>
    <poly id="4240044" type="unknown" color="51,128,255" fill="0" layer="-1.00" shape="3098.88,2688.19 3114.92,2698.05 3130.90,2696.97 3333.95,2568.64 3409.60,2521.51 3497.20,2465.36 3574.84,2417.24 3608.02,2396.87 3638.56,2378.13 3738.14,2320.93 3809.78,2271.83 3875.47,2228.74 3952.11,2176.64 4053.68,2119.43 4080.55,2100.41 4154.23,2056.27 4199.25,2030.17"/>
    <poly id="4240045" type="unknown" color="51,128,255" fill="0" layer="-1.00" shape="4213.86,2049.52 4157.35,2079.12 4098.58,2109.26 4060.77,2138.21 4044.84,2147.32 3961.19,2195.48 3888.10,2245.13 3823.21,2287.40 3744.20,2334.81 3664.56,2384.94 3616.91,2415.91 3602.85,2425.04 3525.21,2473.17 3443.58,2524.31 3366.94,2573.43 3287.29,2621.57 3204.68,2673.71 3131.00,2716.86 3103.21,2747.82"/>
    <poly id="4240046" type="unknown" color="51,128,255" fill="0" layer="-1.00" shape="3065.80,2664.52 3094.68,2649.45 3191.80,2508.76 3234.48,2457.83 3294.99,2382.95 3343.62,2323.04 3393.24,2264.12 3447.81,2196.22 3486.48,2142.33 3531.13,2087.42 3592.64,2009.55 3639.26,1948.65 3696.81,1876.77 3721.62,1846.81 3726.53,1829.89 3731.53,1793.30"/>
    <poly id="4240047" type="unknown" color="51,128,255" fill="0" layer="-1.00" shape="3786.24,1832.20 3755.59,1848.62 3723.74,1869.66 3651.31,1961.52 3606.69,2022.40 3543.19,2100.28 3497.55,2158.18 3453.93,2219.06 3409.27,2271.99 3365.63,2330.87 3312.02,2390.81 3255.47,2461.69 3211.82,2517.60 3096.77,2665.34 3098.88,2688.19"/>
    <poly id="4240056" type="unknown" color="51,128,255" fill="0" layer="-1.00" shape="3365.63,2330.87 3574.84,2417.24"/>
    <poly id="4240057" type="unknown" color="51,128,255" fill="0" layer="-1.00" shape="3409.27,2271.99 3638.56,2378.13"/>
    <poly id="4240058" type="unknown" color="51,128,255" fill="0" layer="-1.00" shape="3453.93,2219.06 3600.08,2278.91"/>
    <poly id="4240059" type="unknown" color="51,128,255" fill="0" layer="-1.00" shape="3497.55,2158.18 3600.08,2278.91 3629.20,2309.58"/>
    <poly id="4240060" type="unknown" color="51,128,255" fill="0" layer="-1.00" shape="3543.19,2100.28 3738.14,2320.93"/>
    <poly id="4240061" type="unknown" color="51,128,255" fill="0" layer="-1.00" shape="3606.69,2022.40 3809.78,2271.83"/>
    <poly id="4240062" type="unknown" color="51,128,255" fill="0" layer="-1.00" shape="3651.31,1961.52 3702.55,2015.93 3830.25,2177.28 3875.47,2228.74"/>
    <poly id="4240063" type="unknown" color="51,128,255" fill="0" layer="-1.00" shape="3761.11,1946.02 3910.88,2125.16 3952.11,2176.64"/>
    <poly id="4240064" type="unknown" color="51,128,255" fill="0" layer="-1.00" shape="3786.24,1832.20 3793.84,1904.09 4014.38,2054.03 4080.55,2100.41"/>
    <poly id="4240065" type="unknown" color="51,128,255" fill="0" layer="-1.00" shape="3830.25,2177.28 3910.88,2125.16 4014.38,2054.03"/>
    <poly id="4240066" type="unknown" color="51,128,255" fill="0" layer="-1.00" shape="3702.55,2015.93 3761.11,1946.02 3793.84,1904.09"/>
    <poly id="4240067" type="unknown" color="51,128,255" fill="0" layer="-1.00" shape="3953.52,1879.59 3944.66,1902.29 3950.72,1914.19 4154.23,2056.27"/>
    <poly id="4240076" type="unknown" color="51,128,255" fill="0" layer="-1.00" shape="3744.20,2334.81 3852.38,2394.88 3892.18,2364.85"/>
    <poly id="4240077" type="unknown" color="51,128,255" fill="0" layer="-1.00" shape="3823.21,2287.40 3892.18,2364.85 4027.93,2537.10"/>
    <poly id="4240078" type="unknown" color="51,128,255" fill="0" layer="-1.00" shape="3961.19,2195.48 4168.28,2446.88"/>
    <poly id="4240079" type="unknown" color="51,128,255" fill="0" layer="-1.00" shape="4044.84,2147.32 4186.57,2316.57"/>
    <poly id="4240080" type="unknown" color="51,128,255" fill="0" layer="-1.00" shape="4098.58,2109.26 4209.87,2190.18"/>
    <poly id="4240081" type="unknown" color="51,128,255" fill="0" layer="-1.00" shape="4221.90,2200.06 4385.32,2315.52"/>
    <poly id="4240082" type="unknown" color="51,128,255" fill="0" layer="-1.00" shape="4237.44,2115.48 4506.77,2237.34"/>
    <poly id="4240083" type="unknown" color="51,128,255" fill="0" layer="-1.00" shape="3888.10,2245.13 4088.63,2496.02"/>
    <poly id="4240084" type="unknown" color="51,128,255" fill="0" layer="-1.00" shape="4249.13,2061.55 4237.44,2115.48 4221.90,2200.06 4200.54,2314.50 4187.92,2384.16 4189.01,2400.05 4195.04,2408.96 4211.08,2419.82"/>
    <poly id="4240085" type="unknown" color="51,128,255" fill="0" layer="-1.00" shape="4191.18,2433.84 4182.11,2416.99 4176.02,2400.12 4174.95,2386.21 4186.57,2316.57 4209.87,2190.18 4230.86,2058.92"/>
    <poly id="4240086" type="unknown" color="51,128,255" fill="0" layer="-1.00" shape="4053.68,2119.43 4060.77,2138.21"/>
    <poly id="4240105" type="unknown" color="51,128,255" fill="0" layer="-1.00" shape="4533.07,2301.81 4588.84,2270.70 4631.66,2245.63"/>
    <poly id="4240106" type="unknown" color="51,128,255" fill="0" layer="-1.00" shape="4631.66,2245.63 4706.76,2283.01"/>
    <poly id="4240107" type="unknown" color="51,128,255" fill="0" layer="-1.00" shape="4722.54,2243.38 4706.76,2283.01 4693.00,2324.84"/>
    <poly id="4240108" type="unknown" color="51,128,255" fill="0" layer="-1.00" shape="4588.84,2270.70 4693.00,2324.84 4715.12,2352.55 4785.63,2467.50 4824.93,2533.90"/>
    <poly id="4240109" type="unknown" color="51,128,255" fill="0" layer="-1.00" shape="4533.07,2301.81 4608.14,2331.24 4651.17,2347.92 4681.28,2375.60 4740.77,2483.64 4746.80,2491.56 4786.11,2558.95"/>
    <poly id="4240110" type="unknown" color="51,128,255" fill="0" layer="-1.00" shape="4507.89,2262.18 4533.07,2301.81 4613.70,2440.57 4670.09,2527.75 4716.42,2600.07"/>
    <poly id="4240121" type="unknown" color="51,128,255" fill="0" layer="-1.00" shape="4422.26,2312.34 4528.02,2481.77 4534.06,2490.69 4562.30,2542.23 4574.40,2564.04 4587.47,2580.87 4629.79,2652.22"/>
    <poly id="4240130" type="unknown" color="51,128,255" fill="0" layer="-1.00" shape="3448.00,3350.34 3500.77,3320.24 3560.51,3284.14 3621.22,3247.03 3675.01,3218.91 3741.73,3184.76 3813.41,3141.63 3909.99,3084.46 4065.28,2988.21 4340.11,2833.67 4369.37,2823.71 4408.21,2801.64 4427.72,2780.52 4468.52,2752.48 4550.14,2700.36 4629.79,2652.22 4716.42,2600.07 4786.11,2558.95 4824.93,2533.90 5030.06,2416.52 5075.87,2388.45 5141.57,2345.36 5230.53,2292.35 5250.94,2278.83 5334.20,2221.00 5454.66,2145.82 5499.45,2114.76 5528.30,2092.74 5550.13,2062.80 5567.99,2040.85 5630.32,1926.20 5638.24,1911.25 5662.03,1876.33 5684.81,1837.43 5706.58,1799.55 5725.40,1766.65 5746.21,1735.72 5763.03,1703.82 5779.39,1678.35"/>
    <poly id="4240174" type="unknown" color="51,128,255" fill="0" layer="-1.00" shape="4612.39,2191.27 4507.89,2262.18 4422.26,2312.34 4394.40,2332.37 4368.50,2346.42 4342.63,2363.45 4308.77,2383.52 4287.87,2397.54 4260.00,2414.59 4228.15,2435.63 4207.24,2447.67 4175.37,2465.73 4161.23,2474.85 4137.33,2490.24 3971.28,2591.08 3833.72,2677.42 3791.73,2703.78 3757.26,2725.42"/>
    <poly id="4240175" type="unknown" color="51,128,255" fill="0" layer="-1.00" shape="3744.18,2705.61 3828.83,2661.42 3883.60,2629.32 3946.31,2591.21 4027.93,2537.10 4088.63,2496.02 4168.28,2446.88 4191.18,2433.84 4211.08,2419.82 4385.32,2315.52 4506.77,2237.34 4595.37,2183.40"/>
    <poly id="4241782" type="unknown" color="51,128,255" fill="0" layer="-1.00" shape="2867.87,1731.93 2961.36,1658.34 3155.60,1499.12"/>
    <poly id="4245878" type="residential" color="235,235,227" fill="1" layer="-11.00" shape="2999.93,1773.43 2812.75,2253.63 2542.49,2147.73 2396.32,2448.76 2903.27,2738.25 2990.73,2658.25 3004.38,2598.54 3090.44,2627.89 3701.47,1839.26 3683.16,1777.72 3354.75,1630.35 3256.90,1638.82 2999.93,1773.43"/>
    <poly id="4245881" type="residential" color="235,235,227" fill="1" layer="-11.00" shape="3143.67,2720.88 3030.86,2864.26 3190.88,3047.36 4576.09,2183.06 4295.45,2050.78 4258.98,2069.34 4218.09,2066.26 4190.44,2026.78 4184.04,1990.76 3827.72,1841.21 3737.95,1869.42 3106.89,2667.12 3143.67,2720.88"/>
    <poly id="4245883" type="residential" color="235,235,227" fill="1" layer="-11.00" shape="3238.62,1583.25 3238.52,1563.36 2853.97,1382.51 2806.08,1392.71 2802.20,1414.60 2896.70,1525.45 2775.33,1617.57 2911.99,1765.96 3238.62,1583.25"/>
    <poly id="4255862" type="unknown" color="51,128,255" fill="0" layer="-1.00" shape="2850.85,1257.72 3050.13,1349.11 3328.49,1473.87"/>
    <poly id="4255863" type="unknown" color="51,128,255" fill="0" layer="-1.00" shape="2884.40,1180.00 3088.69,1275.33 3351.53,1392.73"/>
    <poly id="4255864" type="unknown" color="51,128,255" fill="0" layer="-1.00" shape="2916.89,1092.32 2997.02,1132.66 3122.23,1196.61 3371.56,1310.60"/>
    <poly id="4255865" type="unknown" color="51,128,255" fill="0" layer="-1.00" shape="3030.54,1051.94 3394.03,1216.02"/>
    <poly id="4255866" type="unknown" color="51,128,255" fill="0" layer="-1.00" shape="3060.09,974.23 3415.58,1136.37"/>
    <poly id="4255888" type="unknown" color="51,128,255" fill="0" layer="-1.00" shape="3313.96,1521.16 3328.49,1473.87 3351.53,1392.73 3371.56,1310.60 3394.03,1216.02 3415.58,1136.37 3434.98,1051.65 3457.51,968.01 3477.56,889.36 3520.71,739.00 3545.68,646.39"/>
    <poly id="4255889" type="unknown" color="51,128,255" fill="0" layer="-1.00" shape="3562.78,644.86 3556.40,665.28 3517.65,821.04 3495.11,903.18 3471.60,988.32 3453.02,1062.99 3433.48,1146.11 3411.45,1228.26 3386.95,1316.88 3362.93,1400.01 3331.02,1523.91"/>
    <poly id="4255903" type="unknown" color="51,128,255" fill="0" layer="-1.00" shape="3362.93,1400.01 3487.93,1458.52"/>
    <poly id="4255904" type="unknown" color="51,128,255" fill="0" layer="-1.00" shape="3386.95,1316.88 3584.55,1406.30"/>
    <poly id="4255905" type="unknown" color="51,128,255" fill="0" layer="-1.00" shape="3411.45,1228.26 3682.16,1354.58"/>
    <poly id="4255906" type="unknown" color="51,128,255" fill="0" layer="-1.00" shape="3433.48,1146.11 3771.29,1303.89"/>
    <poly id="4255992" type="unknown" color="51,128,255" fill="0" layer="-1.00" shape="3495.11,903.18 3697.79,1069.14 3900.77,1232.61"/>
    <poly id="4255993" type="unknown" color="51,128,255" fill="0" layer="-1.00" shape="3517.65,821.04 3746.89,1004.75 3974.97,1190.46"/>
    <poly id="4255994" type="unknown" color="51,128,255" fill="0" layer="-1.00" shape="3647.68,1131.55 3697.79,1069.14 3746.89,1004.75 3771.71,975.29 3813.08,960.65 3889.84,929.91 3967.08,897.20 4033.87,869.49"/>
    <poly id="4255997" type="unknown" color="51,128,255" fill="0" layer="-1.00" shape="3556.40,665.28 3613.24,740.05 3694.70,864.84 3813.08,960.65 3935.95,1053.96 4049.15,1146.32"/>
    <poly id="4255998" type="unknown" color="51,128,255" fill="0" layer="-1.00" shape="3471.60,988.32 3590.99,1085.62 3647.68,1131.55 3822.09,1276.78"/>
    <poly id="4256013" type="industrial" color="209,209,204" fill="1" layer="-11.00" shape="3904.44,741.48 3575.98,776.53 3608.27,838.01 3780.86,984.23 3663.76,1128.04 3827.50,1265.67 4407.93,935.18 4609.48,710.99 4401.79,527.57 4251.94,379.34 3940.41,553.86 3833.20,605.09 3904.44,741.48"/>
    <poly id="4256016" type="industrial" color="209,209,204" fill="1" layer="-11.00" shape="3560.38,1223.54 3581.99,1153.82 3463.80,1094.80 3407.00,1307.87 3579.21,1380.52 3734.65,1308.11 3560.38,1223.54"/>
    <poly id="4256029" type="residential" color="235,235,227" fill="1" layer="-11.00" shape="3088.13,711.05 2851.59,1302.91 2871.32,1340.52 3258.30,1517.45 3300.14,1497.34 3515.49,674.95 3273.99,721.97 3144.01,698.81 3088.13,711.05"/>
    <poly id="4258294" type="unknown" color="51,128,255" fill="0" layer="-1.00" shape="4716.42,2219.55 4786.76,2202.96 4909.43,2166.54 5007.16,2138.19 5152.77,2096.68 5181.69,2088.56 5297.32,2043.23 5350.18,2030.60 5398.06,2015.87 5410.01,2008.86 5442.79,1973.88"/>
    <poly id="4258296" type="unknown" color="51,128,255" fill="0" layer="-1.00" shape="4801.06,2073.65 4909.43,2166.54"/>
    <poly id="4258297" type="unknown" color="51,128,255" fill="0" layer="-1.00" shape="4873.75,2028.53 4947.96,2086.80 5007.16,2138.19"/>
    <poly id="4258298" type="unknown" color="51,128,255" fill="0" layer="-1.00" shape="4947.96,2086.80 5054.49,2019.64"/>
    <poly id="4258299" type="unknown" color="51,128,255" fill="0" layer="-1.00" shape="4981.27,1960.37 5054.49,2019.64 5063.51,2026.55 5152.77,2096.68"/>
    <poly id="4258300" type="unknown" color="51,128,255" fill="0" layer="-1.00" shape="5014.55,1951.21 5090.55,1866.31 5146.03,1800.71"/>
    <poly id="4258301" type="unknown" color="51,128,255" fill="0" layer="-1.00" shape="5041.76,1973.58 5118.32,1889.90 5173.91,1822.69"/>
    <poly id="4258302" type="unknown" color="51,128,255" fill="0" layer="-1.00" shape="5068.09,1995.21 5145.36,1912.86 5203.25,1845.84"/>
    <poly id="4258303" type="unknown" color="51,128,255" fill="0" layer="-1.00" shape="5098.48,2020.12 5172.30,1935.75 5227.10,1864.63"/>
    <poly id="4258304" type="unknown" color="51,128,255" fill="0" layer="-1.00" shape="5126.28,2043.02 5195.53,1955.48 5253.87,1885.74"/>
    <poly id="4258305" type="unknown" color="51,128,255" fill="0" layer="-1.00" shape="5151.32,2063.61 5222.57,1978.44 5283.95,1909.46"/>
    <poly id="4258306" type="unknown" color="51,128,255" fill="0" layer="-1.00" shape="5181.69,2088.56 5249.35,2001.19"/>
    <poly id="4258311" type="unknown" color="51,128,255" fill="0" layer="-1.00" shape="5054.53,1835.72 5090.55,1866.31 5118.32,1889.90 5145.36,1912.86 5172.30,1935.75 5195.53,1955.48 5222.57,1978.44 5240.29,1993.49 5249.35,2001.19 5265.66,2015.04 5297.32,2043.23"/>
    <poly id="4258312" type="unknown" color="51,128,255" fill="0" layer="-1.00" shape="5063.51,2026.55 5080.52,2005.43"/>
    <poly id="4258313" type="unknown" color="51,128,255" fill="0" layer="-1.00" shape="4979.87,1922.71 5014.55,1951.21 5041.76,1973.58 5068.09,1995.21 5080.52,2005.43 5098.48,2020.12 5126.28,2043.02 5151.32,2063.61 5181.69,2088.56 5334.20,2221.00"/>
    <poly id="4258314" type="unknown" color="51,128,255" fill="1" layer="-1.00" shape="4962.36,1974.39 4955.32,1965.48 4954.25,1951.57 4969.21,1947.51 4981.27,1960.37 4976.32,1971.33 4962.36,1974.39"/>
    <poly id="4258315" type="unknown" color="51,128,255" fill="0" layer="-1.00" shape="4954.25,1951.57 4979.87,1922.71"/>
    <poly id="4258316" type="unknown" color="51,128,255" fill="0" layer="-1.00" shape="4979.87,1922.71 4969.21,1947.51"/>
    <poly id="4258317" type="unknown" color="51,128,255" fill="0" layer="-1.00" shape="4786.76,2202.96 4760.47,2239.20"/>
    <poly id="4258318" type="unknown" color="51,128,255" fill="0" layer="-1.00" shape="4962.36,1974.39 4873.75,2028.53 4801.06,2073.65 4669.66,2157.84 4633.31,2180.22"/>
    <poly id="4258319" type="unknown" color="51,128,255" fill="0" layer="-1.00" shape="5109.12,1771.61 5146.03,1800.71 5173.91,1822.69 5203.25,1845.84 5215.48,1855.47 5227.10,1864.63 5253.87,1885.74 5283.95,1909.46 5299.48,1921.71 5325.89,1942.52 5353.87,1968.38 5384.34,1988.61 5410.01,2008.86"/>
    <poly id="4258320" type="unknown" color="51,128,255" fill="0" layer="-1.00" shape="5139.91,1735.86 5183.04,1770.44 5249.23,1821.78 5321.42,1875.10 5325.44,1879.05 5354.53,1902.76 5442.79,1973.88 5455.83,1983.76 5550.13,2062.80"/>
    <poly id="4258349" type="unknown" color="51,128,255" fill="0" layer="-1.00" shape="4515.24,878.41 4810.07,1120.18 5159.21,1411.65 5178.27,1428.46 5311.67,1533.15 5334.74,1552.91 5424.03,1629.01 5462.15,1660.63 5561.44,1739.65 5596.13,1765.80 5684.81,1837.43"/>
    <poly id="4258351" type="unknown" color="51,128,255" fill="0" layer="-1.00" shape="4979.87,1922.71 5002.90,1894.65 5054.53,1835.72 5075.37,1810.75 5109.12,1771.61 5139.91,1735.86 5199.50,1668.94 5230.29,1635.97 5257.09,1603.03 5281.62,1571.62 5311.67,1533.15 5441.70,1374.40"/>
    <poly id="4258352" type="unknown" color="51,128,255" fill="0" layer="-1.00" shape="4764.14,1697.06 5002.90,1894.65"/>
    <poly id="4258353" type="unknown" color="51,128,255" fill="0" layer="-1.00" shape="4859.71,1635.91 5075.37,1810.75"/>
    <poly id="4258354" type="unknown" color="51,128,255" fill="0" layer="-1.00" shape="4948.32,1578.79 5139.91,1735.86"/>
    <poly id="4258355" type="unknown" color="51,128,255" fill="0" layer="-1.00" shape="5020.97,1528.69 5199.50,1668.94"/>
    <poly id="4258356" type="unknown" color="51,128,255" fill="0" layer="-1.00" shape="5100.59,1472.60 5257.09,1603.03"/>
    <poly id="4258357" type="unknown" color="51,128,255" fill="0" layer="-1.00" shape="4673.54,1753.20 4931.37,1969.58"/>
    <poly id="4258358" type="unknown" color="51,128,255" fill="0" layer="-1.00" shape="4597.88,1802.31 4857.69,2014.70"/>
    <poly id="4258359" type="unknown" color="51,128,255" fill="0" layer="-1.00" shape="4525.21,1848.43 4639.59,1946.25 4784.05,2065.79"/>
    <poly id="4258360" type="unknown" color="51,128,255" fill="0" layer="-1.00" shape="4441.58,1899.57 4601.78,1975.27 4639.59,1946.25"/>
    <poly id="4258361" type="unknown" color="51,128,255" fill="0" layer="-1.00" shape="4355.96,1953.70 4699.42,2118.91"/>
    <poly id="4258362" type="unknown" color="51,128,255" fill="0" layer="-1.00" shape="4616.29,2172.36 4647.68,2156.96 4699.42,2118.91 4784.05,2065.79 4857.69,2014.70 4931.37,1969.58 4954.25,1951.57"/>
    <poly id="4258363" type="unknown" color="51,128,255" fill="0" layer="-1.00" shape="4593.27,2161.55 4647.68,2156.96"/>
    <poly id="4258364" type="unknown" color="51,128,255" fill="0" layer="-1.00" shape="4669.66,2157.84 4673.36,2198.90"/>
    <poly id="4258366" type="unknown" color="51,128,255" fill="0" layer="-1.00" shape="3424.84,1521.49 3824.30,1712.94"/>
    <poly id="4258367" type="unknown" color="51,128,255" fill="0" layer="-1.00" shape="3515.47,1471.29 3880.88,1647.03"/>
    <poly id="4258368" type="unknown" color="51,128,255" fill="0" layer="-1.00" shape="3615.07,1418.07 3936.45,1577.14"/>
    <poly id="4258369" type="unknown" color="51,128,255" fill="0" layer="-1.00" shape="3705.69,1365.88 3989.99,1501.30"/>
    <poly id="4258370" type="unknown" color="51,128,255" fill="0" layer="-1.00" shape="3838.15,1290.61 4032.65,1446.39"/>
    <poly id="4258371" type="unknown" color="51,128,255" fill="0" layer="-1.00" shape="3917.83,1247.43 4083.24,1381.50"/>
    <poly id="4258372" type="unknown" color="51,128,255" fill="0" layer="-1.00" shape="3998.51,1203.27 4136.85,1317.58"/>
    <poly id="4258373" type="unknown" color="51,128,255" fill="0" layer="-1.00" shape="4087.13,1150.10 4198.38,1240.70"/>
    <poly id="4258374" type="unknown" color="51,128,255" fill="0" layer="-1.00" shape="4187.73,1095.87 4263.87,1157.84"/>
    <poly id="4258375" type="unknown" color="51,128,255" fill="0" layer="-1.00" shape="4400.68,1129.55 4341.64,1085.82 4330.47,1075.24 4286.33,1039.69"/>
    <poly id="4258376" type="unknown" color="51,128,255" fill="0" layer="-1.00" shape="4279.90,1167.70 4378.23,1249.70"/>
    <poly id="4258377" type="unknown" color="51,128,255" fill="0" layer="-1.00" shape="4214.42,1252.55 4356.89,1372.10"/>
    <poly id="4258378" type="unknown" color="51,128,255" fill="0" layer="-1.00" shape="4152.88,1327.44 4337.48,1478.59"/>
    <poly id="4258379" type="unknown" color="51,128,255" fill="0" layer="-1.00" shape="4102.28,1391.34 4321.97,1569.14"/>
    <poly id="4258380" type="unknown" color="51,128,255" fill="0" layer="-1.00" shape="4048.70,1459.23 4129.94,1521.43 4305.50,1666.66"/>
    <poly id="4258381" type="unknown" color="51,128,255" fill="0" layer="-1.00" shape="4012.00,1507.15 4101.11,1548.43 4129.94,1521.43"/>
    <poly id="4258382" type="unknown" color="51,128,255" fill="0" layer="-1.00" shape="3958.45,1581.00 4292.87,1733.33"/>
    <poly id="4258383" type="unknown" color="51,128,255" fill="0" layer="-1.00" shape="3900.88,1650.90 4276.38,1826.86"/>
    <poly id="4258384" type="unknown" color="51,128,255" fill="0" layer="-1.00" shape="3841.33,1721.80 4260.84,1909.47"/>
    <poly id="4258385" type="unknown" color="51,128,255" fill="0" layer="-1.00" shape="3778.00,1742.34 3802.41,1727.97 3824.30,1712.94 3880.88,1647.03 3936.45,1577.14 3989.99,1501.30 4032.65,1446.39 4083.24,1381.50 4136.85,1317.58 4198.38,1240.70 4263.87,1157.84 4330.47,1075.24"/>
    <poly id="4258386" type="unknown" color="51,128,255" fill="0" layer="-1.00" shape="4341.64,1085.82 4279.90,1167.70 4214.42,1252.55 4152.88,1327.44 4102.28,1391.34 4048.70,1459.23 4012.00,1507.15 3958.45,1581.00 3900.88,1650.90 3841.33,1721.80 3831.46,1744.73 3836.32,1776.72"/>
    <poly id="4258388" type="unknown" color="51,128,255" fill="0" layer="-1.00" shape="4248.66,1957.05 4260.84,1909.47 4276.38,1826.86 4292.87,1733.33 4305.50,1666.66 4321.97,1569.14 4337.48,1478.59 4356.89,1372.10 4378.23,1249.70 4400.68,1129.55 4414.30,1059.89 4424.58,999.39 4428.82,971.33"/>
    <poly id="4258390" type="unknown" color="51,128,255" fill="0" layer="-1.00" shape="4455.67,950.30 4437.11,1049.55 4415.65,1148.09 4394.27,1261.55 4372.92,1379.97 4352.54,1494.42 4336.06,1588.94 4317.59,1686.47 4291.41,1833.75 4268.95,1961.64"/>
    <poly id="4258391" type="unknown" color="51,128,255" fill="0" layer="-1.00" shape="4284.06,1971.88 4414.57,1892.75 4507.17,1837.58 4582.85,1792.45 4656.52,1746.34 4741.15,1694.20 4839.68,1626.07 4934.28,1568.91 5008.91,1514.84 5159.21,1411.65"/>
    <poly id="4258392" type="unknown" color="51,128,255" fill="0" layer="-1.00" shape="5178.27,1428.46 5100.59,1472.60 5020.97,1528.69 4948.32,1578.79 4859.71,1635.91 4764.14,1697.06 4673.54,1753.20 4597.88,1802.31 4525.21,1848.43 4441.58,1899.57 4355.96,1953.70 4294.92,1987.05"/>
    <poly id="4258394" type="unknown" color="51,128,255" fill="0" layer="-1.00" shape="4291.41,1833.75 4414.57,1892.75"/>
    <poly id="4258395" type="unknown" color="51,128,255" fill="0" layer="-1.00" shape="4317.59,1686.47 4507.17,1837.58"/>
    <poly id="4258396" type="unknown" color="51,128,255" fill="0" layer="-1.00" shape="4336.06,1588.94 4582.85,1792.45"/>
    <poly id="4258397" type="unknown" color="51,128,255" fill="0" layer="-1.00" shape="4352.54,1494.42 4656.52,1746.34"/>
    <poly id="4258398" type="unknown" color="51,128,255" fill="0" layer="-1.00" shape="4415.65,1148.09 4563.10,1264.64 4782.78,1441.45"/>
    <poly id="4258399" type="unknown" color="51,128,255" fill="0" layer="-1.00" shape="4837.00,1494.86 4934.28,1568.91"/>