<?xml version="1.0" encoding="UTF-8"?>

<!-- generated on Fri May 29 06:18:19 2015 by SUMO duarouter Version 0.23.0
<?xml version="1.0" encoding="UTF-8"?>

<configuration xmlns:xsi="http://www.w3.org/2001/XMLSchema-instance" xsi:noNamespaceSchemaLocation="http://sumo.dlr.de/xsd/duarouterConfiguration.xsd">

    <input>
        <net-file value="KarradaIn.net.xml"/>
        <trip-files value="trips.trips.xml"/>
    </input>

    <output>
        <output-file value="KarradaIn.rou.xml"/>
    </output>

    <processing>
        <ignore-errors value="true"/>
    </processing>

    <time>
        <begin value="0"/>
        <end value="45.0"/>
    </time>

    <report>
        <no-step-log value="true"/>
    </report>

</configuration>
-->

<routes xmlns:xsi="http://www.w3.org/2001/XMLSchema-instance" xsi:noNamespaceSchemaLocation="http://sumo.dlr.de/xsd/routes_file.xsd">
    <vehicle id="0" depart="0.00">
        <route edges="4258361 4258362#2 4258362#3 4258362#4 4258362#5 4258315 4258351#0 4258351#1 4258351#2 4258351#3 4258351#4 4258351#5 4258351#6 4258351#7 -4258349#3 -4258349#2 4258349#2 -4258349#2 -4258349#1 -4258405#4 -4258405#3 -4258405#2 -4258405#1 -4258405#0 4258390#4 4258397 4258391#4 4258391#5 4258391#6 4258391#7 4258349#2 4258349#3 -4258351#7 -4258351#6 -4258351#5 -4258351#4 -4258351#3 -4258351#2 -4258351#1 -4258351#0 4258313#0 4258313#1 4258313#2 4258313#3 4258313#4 4258313#5 4258313#6 4258313#7 4258313#8 -4240130#4 -4240130#3 -4240109 4240105#0 4240108#0 4240108#1 4240130#4 -4258313#8 -4258294#4 4258294#4"/>
    </vehicle>
    <vehicle id="1" depart="0.50">
        <route edges="4258392#3 4258392#4 4258392#5 4258392#6 4258392#7 4258392#8 4258392#9 4258392#10 4214037#9 4214037#10 4214037#11 4214037#0 4214037#1 4214037#2 4214037#3 4214037#4 4214037#5 4258388#0 4258388#1 4258388#2 4258388#3 4258388#4 4258388#5 4258388#6 4258388#7 4258388#8 4258375#0 4258375#1 4258375#2 4074592#0 4074592#1 4074592#2 4074592#3 4074592#4 4074592#5 4074592#6 4074592#7 4074592#8 4074592#9 4074591#4 4214032#4 4214036#2 4214036#3 4214036#4 4214041 4214037#5 4214037#6 4214037#7 4214037#8 4214037#9 4214037#10 4214037#11 4240084#0 4240082 4240175#7 4214038#3 4214037#11 4214037#0 4214037#1 4214037#2 4214037#3 4214037#4 4214037#5 4214037#6 4214037#7 4214037#8 4214037#9 4214039#0 4214039#1 4258362#0 4258362#1 4258362#2 4258362#3 4258362#4 4258362#5 4258315 4258313#0 4258313#1 4258313#2 4258313#3 4258313#4 4258303#0 4258311#4 -4258304#0"/>
    </vehicle>
    <vehicle id="2" depart="1.00">
        <route edges="4240076 4240077#1 4240175#1 4240175#2 4240175#3 4240085#0 4240085#1 -4240080 4240045#1 -4240086 4240044#7 -4240064#2 -4240064#1 -4240064#0 4214036#7 4214036#0 49192811#0 49192811#1 49192811#2 49192811#3 4074593#2 4074593#3 4074593#4 4074593#5 4074593#6 4074593#7 4074593#8 -4255998#1 4255994#0 4255994#1 -4255993#0 4255993#0 -4255994#1 -4255994#0 -4255998#0 4255889#4 4255889#5 4255889#6 4255889#7 4255889#8 4074591#2 4074591#3 4074591#4 4214032#4 4214036#2 4214036#3 4214036#4 4214036#5 4214036#6 4240047#0 4240047#1 4240047#2 4240047#3 4240059#0 -4240058 4240047#5 4240057 4240044#2 4240044#3 4240044#4 4240044#5 4240044#6 4240044#7 4240044#8 4240044#9 4214037#3 4214037#4 4214037#5 4214037#6 4214037#7 4258391#0 4258391#1 4258391#2 4258391#3 4258391#4 4258391#5 -4258403#3 -4258403#2 4258407#0 -4258398#1 4258405#2 4258405#3 4258405#4 4258349#1 4258349#2 4258349#3 -4258351#7 -4258351#6 -4258351#5 -4258351#4 -4258351#3 -4258351#2 -4258351#1 -4258351#0 4258313#0 4258313#1 4258313#2 4258313#3 4258313#4 4258313#5 4258313#6 4258313#7 4258313#8 -4240130#4 -4240130#3 -4240130#2 -4240130#1 -4240130#0"/>
    </vehicle>
    <vehicle id="3" depart="1.50">
        <route edges="-4258369 4074592#6 4074592#7 4074592#8 4074592#9 4074591#4 4214032#4 4214036#2 4214036#3 4214036#4 4214041 4214037#5 4214037#6 4214037#7 4258391#0 4258391#1 4258391#2 4258391#3 4258391#4 4258391#5 4258391#6 4258391#7 4258349#2 4258392#0 4258392#1 4258392#2 4258392#3 4258392#4 4258392#5 4258392#6 4258392#7 4258392#8 4258392#9 4258392#10 4214037#9 4214037#10 4214037#11 4214037#0 4214037#1 4214037#2 4214037#3 4214040#0 4214040#1 4214036#6 4214036#7 4214036#0 4214036#1 4214036#2 4258385#0 4258385#1 4258385#2 4258385#3 4258385#4 4258385#5 -4258371 4258371 4258385#6 4258385#7 4258385#8 4258385#9 -4258375#1 4258386#0 4258386#1 4258386#2 4258386#3 4258386#4 4258386#5 4258386#6 4258386#7 4258386#8 4258386#9 4214036#4 4214041 4214037#5 4214037#6 4214037#7 4258391#0 4258391#1 4258391#2 4258391#3 -4258397 4258390#5 4258390#6 4258390#7 4258390#8 4214037#7 4214037#8 4214037#9 4214039#0 4214039#1 4214039#2 4214039#3 4214039#4 4214039#5 4214039#6 4214044"/>
    </vehicle>
    <vehicle id="4" depart="2.00">
        <route edges="-4258352 4258392#5 4258392#6 4258392#7 4258392#8 4258392#9 4258392#10 4214037#9 4214037#10 4214037#11 4214037#0 4214037#1 4214037#2 4214037#3 4214040#0 4214040#1 4214036#6 4214036#7 4214036#0 4214036#1 4214036#2 4258385#0 4258385#1 4258385#2 4258385#3 -4258369 4258369 -4258369 4074592#6 4074592#7 4074592#8 4074592#9 4074591#4 4074591#5 4074591#6 4240038#0 4240038#1 4240038#2 4240038#3 4239998 4240046#5 4240046#6 4240046#7 4240046#8 4214036#1 4214036#2 4214036#3 4214036#4 4214041 4214037#5 4214037#6 4214037#7 4258391#0 4258391#1 4258391#2 4258391#3 4258391#4 4258391#5 4258391#6 4258391#7 4258349#2 4258349#3 -4258351#7 -4258351#6 -4258351#5 -4258351#4 -4258351#3 -4258351#2 -4258351#1 -4258351#0 4258316 4258314#2 4258299#0"/>
    </vehicle>
    <vehicle id="5" depart="2.50">
        <route edges="4258397 4258391#4 4258391#5 -4258403#3 -4258403#2 -4258403#1 -4258405#0 4258390#4 4258390#5 4258390#6 4258390#7 4258390#8 4214037#7 4214037#8 4214037#9 4214037#10 4214037#11 4214037#0 4214037#1 4214037#2 4214037#3 4214040#0 4240067 4240044#9 4214037#3 4214037#4 4214037#5 4214037#6 4214037#7 4214037#8 4214037#9 4214037#10 4214037#11 4214037#0 4214037#1 4240045#0 4240045#1 4240045#2 4240045#3 4240045#4 4240083 -4240083 4240083 4240175#2 4240175#3 4240085#0 4240085#1 4240085#2 4214037#1 4214037#2 4214037#3 4214037#4 4214037#5 4214037#6 4214037#7 4214037#8 4214037#9 4214039#0 4214039#1 4214039#2 4214039#3 4214039#4 4258294#0 4258294#1 4258294#2 4258294#3 4258294#4 4258313#8 -4240130#4 -4240130#3 -4240130#2 -4240110#1"/>
    </vehicle>
    <vehicle id="7" depart="3.50">
        <route edges="-4258294#6 -4258311#7 -4258311#6 -4258311#5 -4258311#4 -4258311#3 -4258311#2 -4258311#1 -4258311#0 4258351#2 4258351#3 4258351#4 4258351#5 4258351#6 4258351#7 -4258349#3 -4258349#2 -4258349#1 -4258405#4 -4258405#3 -4258404#0 4258390#1 4258390#2 4258390#3 4258390#4 4258390#5 4258390#6 4258390#7 4258390#8 4214037#7 4214037#8 4214037#9 4214037#10 4214037#11 4214037#0 4214037#1 4214037#2 4214037#3 4214037#4 4214037#5 4258388#0 4258388#1 4258388#2 4258388#3 4258388#4 4258388#5 -4258378 4258378 -4258378 4258386#3 4258386#4 4258386#5 4258386#6 4258386#7 4258386#8 4258386#9 4214036#4 4214041"/>
    </vehicle>
    <vehicle id="8" depart="4.00">
        <route edges="4258362#3 -4258358 4258392#7 4258392#8 4258392#9 4258392#10 4214037#9 4214037#10 4214037#11 4214037#0 4214037#1 4214037#2 4214037#3 4214040#0 4214040#1 4214036#6 4214036#7 4214036#0 49192811#0 49192811#1 49192811#2 49192811#3 4074593#2 4074593#3 4074593#4 4074593#5 4074593#6 4074593#7 4074593#8 4074593#9 -4255992#1 -4255994#0 -4255998#0 4255889#4 4255889#5 4255889#6 4255889#7 4255889#8 4074591#2 4074591#3 4074591#4 4214032#4 4214036#2 4214036#3 4214036#4 4214041 4214037#5 4214037#6 4214037#7 4214037#8 4214037#9 4214039#0 4214039#1 4258362#0 4258362#1 4258362#2 4258362#3 -4258358 4258358 -4258358 4258392#7 4258392#8 4258392#9 4258392#10 4214037#9 4214037#10 4214037#11 4214037#0 4214037#1 4214037#2 4214037#3 4214040#0 4214040#1 4214036#6 4214036#7 4214036#0 49192811#0 49192811#1 4074591#6 4074591#7 4074591#8 4074592#13 4074592#14 4074592#15 4240005 4240037#3 4240037#4 4240037#5 4074591#8 4074591#9 4074593#1 4074593#2 4214032#2 4214032#3 4214032#4 4214036#2 4214036#3 4214036#4 4214036#5 4214036#6 4240064#0 4240064#1 4240064#2 4240044#8 -4240067 4240067"/>
    </vehicle>
    <vehicle id="10" depart="5.00">
        <route edges="4214045 4214038#0 4214038#1 4214038#2 4214038#3 4214037#11 4214037#0 4214037#1 4214037#2 4214037#3 4214040#0 4214040#1 4214036#6 4214036#7 4214036#0 4214036#1 4214036#2 4258385#0 4258385#1 4258385#2 4258385#3 4258385#4 4258385#5 -4258371 4074592#4 4074592#5 4074592#6 4074592#7 4074592#8 4074592#9 4074591#4 4074591#5 4074591#6 4240038#0 4240038#1 4240038#2 4240038#3 4240038#4 4239997 4240046#4 4240046#5 4240046#6 4240046#7 4240046#8 4214036#1 4214036#2 4214036#3 4214036#4 4214041 4214037#5 4214037#6 4214037#7 4214037#8 4214037#9 4214039#0 4214039#1 4258362#0 4258362#1 4258362#2 4258362#3 4258362#4 4258362#5 4258315 4258313#0 4258313#1 4258313#2 4258313#3 4258313#4 4258303#0 4258311#4 4258311#5 -4258311#5 -4258311#4 -4258311#3 -4258311#2 -4258311#1 -4258311#0 -4258351#1 -4258352 4258392#5 4258392#6 4258392#7 4258392#8 4258392#9 4258392#10 4214037#9 4214037#10 4214037#11 4214037#0 4214037#1 4214037#2 4214037#3 4214040#0 4214040#1 4214036#6 4214036#7 4214036#0 49192811#0 49192811#1 4074591#6 4240038#0 4240038#1 4240038#2 4240038#3 4239998 -4239998"/>
    </vehicle>
    <vehicle id="11" depart="5.50">
        <route edges="-4258311#0 -4258351#1 -4258351#0 4258313#0 4258313#1 4258313#2 4258313#3 4258313#4 4258313#5 4258313#6 4258313#7 4258313#8 -4240130#4 -4240108#1 -4240107#1 -4240107#0 4214038#1 4214038#2 4214038#3 4214037#11 4214037#0 4214037#1 4214037#2 4214037#3 4214040#0 4214040#1 4214036#6 4214036#7 4214036#0 49192811#0 49192811#1 49192811#2 49192811#3 4074593#2 4074593#3 4074593#4 4074593#5 4074593#6 -4255905 4255889#6 4255889#7 4255889#8 4074591#2 4074591#3 4074591#4 4214032#4 4214036#2 4258385#0 4258385#1 -4258367 4258367 -4258367 4074592#8 4074592#9 4074591#4 4214032#4 4214036#2 4214036#3 4214036#4 4214041 4214037#5 4214037#6 4214037#7 4214037#8 4214037#9 4214039#0 4214039#1 4258362#0 4258362#1 4258362#2 -4258359#1"/>
    </vehicle>
    <vehicle id="12" depart="6.00">
        <route edges="4240044#8 -4240067 4214040#1 4214036#6 4214036#7 4214036#0 49192811#0 49192811#1 49192811#2 49192811#3 4074593#2 4074593#3 4074593#4 4074593#5 4074593#6 4074593#7 4074593#8 -4255998#1 4255994#0 -4255992#0 4255992#0 -4255994#0 -4255998#0 4255889#4 4255889#5 4255889#6 4255889#7 4255889#8 4074591#2 4074591#3 4074591#4 4214032#4 4214036#2 4214036#3 4214036#4 4214041 4214037#5 4214037#6 4214037#7 4214037#8 4214037#9 4214039#0 4214039#1 4214039#2 4214039#3 4214039#4 4258294#0 4258294#1 4258294#2 4258294#3 4258294#4 4258313#8 -4240130#4 4240130#4 -4258313#8 -4258313#7 -4258313#6 -4258313#5 -4258313#4 -4258313#3 -4258313#2 -4258313#1 -4258313#0 4258351#0 -4258352 4258392#5 4258392#6 4258392#7 4258392#8 4258392#9 4258392#10 4214037#9 4214037#10 4214037#11 4214037#0 4214037#1 4214037#2 4214037#3 4214037#4 4214037#5 4214037#6 4214037#7 4258391#0 4258391#1 -4258395 4258395 -4258395 4258390#7 4258390#8 4214037#7 4214037#8 4214037#9 4214037#10 4214037#11 4214037#0 4214037#1 4214037#2 4214037#3 4214040#0 4214040#1 4214036#6 4214036#7 4214036#0 49192811#0 49192811#1 49192811#2 49192811#3 49192811#4 4074591#11 4074591#12 4074591#0 4255888#0 4255888#1 4255888#2"/>
    </vehicle>
    <vehicle id="14" depart="7.00">
        <route edges="-4258375#2 -4258375#1 4258386#0 4258386#1 4258386#2 4258386#3 4258386#4 4258386#5 4258386#6 4258386#7 4258386#8 4258386#9 4214036#4 4214041 4214037#5 4214037#6 4214037#7 4214037#8 4214037#9 4214039#0 4214039#1 4258362#0 4258362#1 4258362#2 4258362#3 4258362#4 4258362#5 4258315 4258351#0 4258351#1 4258311#0 4258311#1 4258301#1 -4258301#1 4258311#2 4258302#1 -4258319#2 -4258319#1 -4258319#0 -4258351#3 -4258351#2 -4258351#1 -4258352 4258392#5 4258392#6 4258392#7 4258392#8 4258392#9 4258392#10 4214037#9 4214037#10 4214037#11 4214037#0 4214037#1 4214037#2 4214037#3 4214040#0 4214040#1 4214036#6 4214036#7 4214036#0 49192811#0 49192811#1 49192811#2 49192811#3 4074593#2 4074593#3 4074593#4 4074593#5 4074593#6 4074593#7 4074593#8 -4255998#1 4255994#0 4255994#1 4255994#2 4255994#3"/>
    </vehicle>
    <vehicle id="15" depart="7.50">
        <route edges="4258354 4258351#5 4258351#6 4258351#7 -4258349#3 -4258349#2 -4258349#1 4258349#1 4258349#2 4258349#3 -4258351#7 -4258351#6 -4258351#5 -4258351#4 -4258351#3 -4258351#2 4258311#0 4258311#1 4258311#2 4258311#3 4258311#4 4258311#5 4258311#6 4258311#7 4258294#6 -4258294#6 -4258294#5 4258313#8 4240130#5 -4258320#1 -4258294#7 -4258294#6 -4258311#7 -4258311#6 -4258311#5 -4258311#4 -4258311#3 -4258311#2 -4258311#1 -4258311#0 -4258351#1 -4258352 4258392#5 4258392#6 4258392#7 4258392#8 4258392#9 4258392#10 4214037#9 4214037#10 4214037#11 4214037#0 4214037#1 4214037#2 4214037#3 4214040#0 4214040#1 4214036#6 4214036#7 4214036#0 49192811#0 49192811#1 4074591#6 4240038#0 4240038#1 4240038#2 4240038#3 4240038#4 4240038#5 4240038#6 4240038#7 4240038#8"/>
    </vehicle>
    <vehicle id="16" depart="8.00">
        <route edges="4258404#0 -4258405#2 -4258405#1 -4258405#0 4258390#4 4258390#5 4258390#6 4258390#7 4258390#8 4214037#7 4214037#8 4214037#9 4214037#10 4214037#11 4214037#0 4214037#1 4214037#2 4214037#3 4214040#0 4214040#1 4214036#6 4214036#7 4214036#0 49192811#0 49192811#1 49192811#2 49192811#3 4074593#2 4074593#3 4074593#4 4074593#5 4074593#6 -4255905 4255889#6 4255889#7 4255889#8 4074591#2 4074591#3 4074591#4 4214032#4 4214036#2 4258385#0 4258385#1 4258385#2 4258385#3 4258385#4 4258385#5 4258385#6 -4258372 4074592#3 4074592#4 4074592#5 4074592#6 4074592#7 4074592#8 4074592#9 4074592#10 4074592#11 49192811#3 4074593#2 4074593#3 4074593#4 4074593#5 4074593#6 4074593#7 4074593#8 -4255998#1 4255994#0 4255994#1 4255994#2 4255997#1 -4255997#1 -4255994#2 -4255994#1 -4255994#0 -4255998#0 4255889#4 4255889#5 4255889#6 4255889#7 4255889#8 4074591#2 4074591#3 4074591#4 4214032#4 4214036#2 4214036#3 4214036#4 4214041 4214037#5 4214037#6 4214037#7 4258391#0 4258391#1 4258391#2 4258391#3 4258391#4 4258391#5 4258391#6 4258391#7 4258349#2 4258349#3"/>
    </vehicle>
    <vehicle id="17" depart="8.50">
        <route edges="-4258375#2 -4258375#1 4258386#0 4258386#1 4258386#2 4258386#3 4258386#4 4258380#0 -4258381 4258386#6 4258386#7 4258386#8 4258386#9 4214036#4 4214036#5 4214036#6 4240047#0 4240062#0 4240062#1 4240065#0 -4240063#0 4240066#1 -4240064#0 4214036#7 4214036#0 49192811#0 49192811#1 49192811#2 49192811#3 49192811#4 49192811#5 49192811#6"/>
    </vehicle>
    <vehicle id="19" depart="9.50">
        <route edges="-4258404#0 4258404#0 4258405#3 4258405#4 4258349#1 4258349#2 4258349#3 -4258351#7 -4258351#6 -4258351#5 -4258351#4 -4258351#3 -4258351#2 -4258351#1 -4258351#0 4258313#0 4258313#1 4258313#2 4258313#3 4258313#4 4258313#5 4258313#6 4258313#7 4258313#8 -4240130#4 4240130#4 -4258313#8 -4258313#7 -4258313#6 -4258313#5 -4258313#4 -4258313#3 -4258313#2 -4258313#1 -4258313#0 4258351#0 4258351#1 4258351#2 4258351#3 4258351#4 4258351#5 4258351#6 4258351#7 -4258349#3 -4258349#2 -4258349#1 -4258405#4 -4258405#3 -4258405#2 -4258405#1 -4258405#0 4258390#4 4258390#5 4258390#6 4258390#7 4258390#8 4214037#7 4214037#8 4214037#9 4214037#10 4214037#11 4214037#0 4214037#1 4214037#2 4214037#3 4214037#4 4214037#5 4258388#0 4258388#1 4258388#2 -4258382 4258386#7 4258386#8 4258386#9 4214036#4 4214036#5 4214036#6 4240047#0 4240047#1 4240047#2 4240047#3 4240047#4 4240058"/>
    </vehicle>
    <vehicle id="20" depart="10.00">
        <route edges="4240130#5 -4258320#1 -4258294#7 -4258294#6 -4258311#7 -4258311#6 -4258311#5 -4258311#4 -4258311#3 -4258311#2 -4258311#1 -4258311#0 -4258351#1 -4258352 4258392#5 4258392#6 4258358 -4258358 4258392#7 4258392#8 4258392#9 4258392#10 4214037#9 4214037#10 4214037#11 4214037#0 4214037#1 4214037#2 4214037#3 4214040#0 4214040#1 4214036#6 4214036#7 4214036#0 4214036#1 4214036#2 4258385#0 4258385#1 4258385#2 -4258368 4258368 4258385#3 4258385#4 4258385#5 4258385#6 4258385#7 4258385#8 4258385#9 -4258375#1 4258386#0 4258386#1 4258386#2 4258378 4258388#6 -4258377 4258386#2 4258386#3 4258386#4 4258386#5 4258386#6 4258386#7 4258386#8 4258386#9 4214036#4 4214036#5 4214036#6 4214036#7 4214036#0 49192811#0 -4240002#2 -4240002#1 -4240002#0 4239999#1"/>
    </vehicle>
    <vehicle id="21" depart="10.50">
        <route edges="4258362#2 4258362#3 4258362#4 4258362#5 4258314#1 4258314#2 4258314#3 4258318#0 4258318#1 4258296 -4258294#1 -4258294#0 4258294#0 4258294#1 4258294#2 -4258297#1 4258298 4258299#1 4258312 -4258313#3 -4258313#2 -4258313#1 -4258313#0 4258351#0 -4258352 4258392#5 4258392#6 4258392#7 4258392#8 4258392#9 4258392#10 4214037#9 4214037#10 4214037#11 4214037#0 4214037#1 4214037#2 4214037#3 4214040#0 4214040#1 4214036#6 4214036#7 4214036#0 49192811#0 49192811#1 4074591#6 4240038#0 4240038#1 4240038#2 4240038#3 4240038#4 4240038#5 4239996 -4239996 4239996 4240046#3 -4239997 4239997 4240046#4 4240046#5 4240046#6 4240046#7 4240046#8 4214036#1 4214036#2 4214036#3 4214036#4 4214041 4214037#5 4214037#6 4214037#7 4214037#8 4214037#9 4214039#0 4214039#1 4258362#0 4258362#1 4258362#2 4258362#3 -4258358"/>
    </vehicle>
    <vehicle id="22" depart="11.00">
        <route edges="-4258377 4258386#2 4258386#3 4258386#4 4258386#5 4258386#6 4258386#7 4258386#8 4258386#9 4214036#4 4214041 4214037#5 4214037#6 4214037#7 4214037#8 4214037#9 4214039#0 4214039#1 4258362#0 4258362#1 4258362#2 4258362#3 4258362#4 4258362#5 4258315 4258351#0 -4258352 4258352 4258351#1 4258351#2 4258351#3 4258351#4 4258351#5 -4258355 4258355 4258351#6 4258351#7 -4258349#3 -4258349#2 -4258349#1 -4258405#4 -4258405#3 -4258405#2 -4258398#0 4258390#2 4258390#3 4258390#4 4258390#5 4258390#6 4258390#7 4258390#8 4214037#7 4214037#8 4214037#9 4214037#10 4214037#11 4214037#0 4214037#1 4240045#0 4240045#1 4240045#2 4240045#3 4240045#4 4240083"/>
    </vehicle>
    <vehicle id="23" depart="11.50">
        <route edges="-4240130#4 -4240108#1 -4240107#1 -4240107#0 4214038#1 4214038#2 4214038#3 4214037#11 4214037#0 4214037#1 4214037#2 4214037#3 4214037#4 4214037#5 4258388#0 -4258384 4258386#9 4214036#4 4214036#5 4214036#6 4214036#7 4214036#0 49192811#0 49192811#1 49192811#2 49192811#3 4074593#2 4074593#3 4074593#4 4074593#5 4074593#6 4074593#7 4074593#8 -4255998#1 4255994#0 4255994#1 -4255993#0 4255889#2 4255889#3 4255889#4 4255889#5 4255889#6 4255889#7 4255889#8 4074591#2 4074591#3 4074591#4 4214032#4 4214036#2 4214036#3 4214036#4 4214041 4214037#5 4214037#6 4214037#7 4214037#8 4214037#9 4214039#0 4214039#1 4214039#2 4214039#3 4214039#4 4258294#0 4258294#1 -4258294#1 4258294#1 4258294#2 -4258297#1 4258298 4258299#1 4258312 -4258313#3 -4258313#2 -4258313#1 -4258313#0 4258351#0 -4258352 4258392#5 4258392#6 4258392#7 4258392#8 4258392#9 4258392#10 4214037#9 4214037#10 4214037#11 4214037#0 4214037#1 4240045#0 4240045#1 -4240086 4240044#7 -4240064#2 -4240065#1 -4240063#0"/>
    </vehicle>
    <vehicle id="24" depart="12.00">
        <route edges="-4258372 4074592#3 4074592#4 4074592#5 4074592#6 4074592#7 4074592#8 4074592#9 4074591#4 4214032#4 4214036#2 4214036#3 4214036#4 4214041 4214037#5 4214037#6 4214037#7 4214037#8 4214037#9 4214039#0 4214039#1 4214039#2 4214039#3 4214039#4 4258294#0 4258294#1 4258294#2 4258294#3 4258294#4 4258313#8 -4240130#4 -4240130#3 -4240130#2 -4240130#1 4240130#1 4240130#2 4240130#3 -4240108#1 -4240107#1 -4240107#0 4214038#1 4214038#2 4214038#3 4214037#11 4214037#0 4214037#1 4214037#2 4214037#3 4214040#0 4214040#1 4214036#6 4214036#7 4214036#0 49192811#0 49192811#1 4074591#6 4240038#0 4240038#1 4240038#2 4240038#3 4240038#4 4240038#5 4240038#6 4240038#7 4239994 4240046#1 4240046#2 4240046#3 4240046#4 4240046#5 4240046#6 4240046#7 4240046#8 4214036#1 4214036#2 4214036#3 4214036#4 4214036#5 4214036#6 4240047#0 4240047#1 4240047#2 4240047#3 4240059#0 -4240058 4240047#5 4240057 4240044#2 4240044#3 4240044#4 -4240062#2 -4240062#1 4240066#0 4240066#1 -4240064#0 4214036#7 4214036#0 49192811#0 49192811#1 49192811#2 49192811#3 49192811#4 4074591#11 4074591#12 4074591#0 4255888#0 4255888#1 4255888#2 4255888#3 4255888#4 -4255866"/>
    </vehicle>
    <vehicle id="25" depart="12.50">
        <route edges="4240085#0 4240085#1 4240085#2 4214037#1 4214037#2 4214037#3 4214037#4 4214037#5 4214037#6 4214037#7 4214037#8 4214037#9 4214039#0 4214039#1 4214039#2 4214039#3 4214039#4 4258294#0 4258294#1 4258294#2 4258294#3 4258294#4 4258313#8 -4240130#4 -4240130#3 -4240130#2 -4240130#1 -4240121"/>
    </vehicle>
    <vehicle id="26" depart="13.00">
        <route edges="4258388#2 -4258382 4258386#7 4258386#8 4258386#9 4214036#4 4214041 4214037#5 4214037#6 4214037#7 4214037#8 4214037#9 4214039#0 4214039#1 4214039#2 4214039#3 4214039#4 4258294#0 4258294#1 4258294#2 4258294#3 4258294#4 4258313#8 -4240130#4 -4240108#1 -4240107#1 -4240106 4240106 -4240107#0 4214038#1 4214038#2 4214038#3 4214037#11 4214037#0 4214037#1 4214037#2 4214037#3 4214040#0 4214040#1 4214036#6 4214036#7 4214036#0 49192811#0 49192811#1 4074591#6 4240038#0 4240038#1 4240038#2 4240038#3 4240038#4 4240038#5 4240038#6 4239995 4240046#2 4240046#3 4240046#4 4240046#5 -4239999#1 4240002#0 4240002#1 4240002#2 49192811#1 49192811#2 49192811#3 4074593#2 4074593#3 4074593#4 -4255903 4255903 -4255903 4255889#8 4074591#2 4074591#3 4074591#4 4214032#4 4214036#2 4214036#3 4214036#4 4214041 4214037#5 4214037#6 4214037#7 4258391#0 4258391#1 4258391#2 4258391#3 4258391#4 4258391#5 -4258403#3 -4258403#2 4258407#0 4258407#1 -4258407#1"/>
    </vehicle>
    <vehicle id="27" depart="13.50">
        <route edges="4214038#1 4240174#0 4240110#0 4240105#0 4240108#0 4240108#1 4240130#4 -4258313#8 4258294#5 -4258311#7 -4258311#6 -4258311#5 -4258311#4 -4258311#3 -4258311#2 -4258311#1 -4258311#0 -4258351#1 -4258352 4258392#5 4258392#6 4258392#7 4258392#8 4258392#9 4258392#10 4214037#9 4214037#10 4214037#11 4214037#0 4214037#1 4214037#2 4214037#3 4214037#4 4214037#5 4258388#0 4258388#1 -4258383 4258383 -4258383 4258386#8 4258386#9 4214036#4 4214036#5 4214036#6 4214036#7 4214036#0 49192811#0 49192811#1 4074591#6 4240038#0 4240038#1 4240038#2 4240038#3 4239998 4240046#5 4240046#6 4240046#7 4240046#8 4214036#1 4214036#2 4214036#3 4214036#4 4214041 4214037#5 4258388#0 4258388#1 4258388#2 4258388#3 -4258380#1 -4258380#0 4258380#0"/>
    </vehicle>
    <vehicle id="28" depart="14.00">
        <route edges="4258311#6 -4258311#6 -4258311#5 -4258311#4 -4258311#3 -4258311#2 -4258311#1 -4258311#0 -4258351#1 -4258352 4258392#5 4258357 -4258357 4258392#6 4258392#7 4258392#8 4258392#9 4258392#10 4214037#9 4214037#10 4214037#11 4214037#0 4214037#1 4214037#2 4214037#3 4214040#0 4214040#1 4214036#6 4214036#7 4214036#0 49192811#0 49192811#1 4074591#6 4240038#0 4240038#1 4240038#2 4240038#3 4239998 4240046#5 4240046#6 4240046#7 4240046#8 4214036#1 4214036#2 4214036#3 4214036#4 4214041 4214037#5 4214037#6 4214037#7 4214037#8 4214037#9 4214039#0 4214039#1 4258362#0 4258362#1 4258362#2 4258362#3 4258362#4 4258362#5 4258315 4258316 4258314#2 4258314#3 4258314#0 4258315 4258351#0 -4258352 4258392#5 4258392#6 4258392#7 4258392#8 4258392#9 4258392#10 4214037#9 4214037#10 4214037#11 4214037#0 4214037#1 4214037#2 4214037#3 4214040#0 4214040#1 4214036#6 4214036#7 4214036#0 49192811#0 -4240002#2 4240001#1"/>
    </vehicle>
    <vehicle id="29" depart="14.50">
        <route edges="4240037#5 4074591#8 4074591#9 4074593#1 4074593#2 4214032#2 4214032#3 4214032#4 4214036#2 4214036#3 4214036#4 4214041 4214037#5 4214037#6 4214037#7 4258391#0 4258391#1 -4258395 4258390#7 4258394 4258391#1 4258391#2 4258391#3 4258391#4 -4258402#2 -4258402#1 -4258402#0 4258405#0 -4258403#0 4258390#3 4258390#4 4258390#5 4258390#6 4258390#7 4258390#8 4214037#7 4214037#8 4214037#9 4214037#10 4214037#11 4214037#0 4214037#1 4240045#0 4240045#1 4240045#2 4240045#3 4240045#4 4240045#5 4240045#6 4240045#7"/>
    </vehicle>
    <vehicle id="30" depart="15.00">
        <route edges="4258349#0 4258349#1 4258349#2 4258349#3 -4258349#3 4258392#0 4258392#1 4258392#2 4258392#3 4258392#4 4258392#5 4258392#6 4258392#7 4258392#8 4258392#9 4258392#10 4214037#9 4214037#10 4214037#11 4214037#0 4214037#1 4214037#2 4214037#3 4214040#0 4214040#1 4214036#6 4214036#7 4214036#0 4214036#1 4214036#2 4258385#0 4258385#1 -4258367 4074592#8 4074592#9 4074591#4 4214032#4 4214036#2 4214036#3 4214036#4 4214041 4214037#5 4214037#6 4214037#7 4214037#8 4214037#9 4214039#0 4214039#1 4258362#0 4258362#1 4258362#2 -4258359#1 -4258360 4258392#9 4258392#10 4214037#9 4214037#10 4214037#11 4214037#0 4214037#1 4214037#2 4214037#3 4214040#0 4214040#1 4214036#6 4214036#7 4214036#0 49192811#0 49192811#1 49192811#2 49192811#3 4074593#2 4074593#3 4074593#4 4074593#5 4074593#6 4074593#7 4074593#8 -4255998#1 -4255998#0"/>
    </vehicle>
    <vehicle id="31" depart="15.50">
        <route edges="4214032#0 4214032#1 4214032#2 4214032#3 4214032#4 4214036#2 4214036#3 4214036#4 4214041 4214037#5 4214037#6 4214037#7 4258391#0 4258391#1 4258391#2 4258391#3 4258391#4 4258391#5 -4258403#3 -4258403#2 -4258403#1 -4258405#0 4258390#4 4258390#5 4258390#6 4258390#7 4258390#8 4214037#7 4214037#8 4214037#9 4214037#10 4214037#11 4214037#0 4214037#1 4240045#0 4240045#1 -4240086 4240044#7 -4240064#2 -4240065#1 4240063#1 4240044#6 4240044#7 4240044#8 4240044#9 4214037#3 4214037#4 4214037#5 4258388#0 4258388#1 4258388#2 4258388#3 4258388#4 4258388#5 4258388#6 -4258377 4258386#2 4258386#3 4258386#4 4258386#5 4258386#6 4258386#7 4258386#8 4258386#9 4214036#4 4214041 4214037#5 4214037#6 4214037#7 4214037#8 4214037#9 4214039#0 4214039#1 4214039#2 4214039#3 4214039#4 4258294#0 4258294#1 4258294#2 4258294#3 4258294#4 4258313#8 -4240130#4 4240130#4"/>
    </vehicle>
    <vehicle id="32" depart="16.00">
        <route edges="-4240130#6 -4258320#1 -4258294#7 -4258294#6 -4258311#7 -4258311#6 -4258311#5 -4258311#4 -4258311#3 -4258311#2 -4258311#1 -4258311#0 -4258351#1 -4258352 4258352 -4258351#0 4258316 4258314#2 4258314#3 4258318#0 4258318#1 4258296 4258294#2 -4258297#1 4258298 4258299#1 4258312 -4258313#3 -4258313#2 -4258313#1 -4258313#0 4258351#0 -4258352 4258392#5 4258392#6 4258392#7 4258392#8 4258392#9 4258392#10 4214037#9 4214037#10 4214037#11 4214037#0 4214037#1 4214037#2 4214037#3 4214040#0 4214040#1 4214036#6 4214036#7 4214036#0 49192811#0 49192811#1 4074591#6 4074591#7 4074591#8 4074592#13 4074592#14 4240004 -4240004 4240004 4240037#4 4240037#5 4074591#8 4074591#9 4074593#1 4074593#2 4214032#2 4214032#3 4214032#4 4214036#2 4214036#3 4214036#4 4214041 4214037#5 4214037#6 4214037#7 4258391#0 4258391#1 -4258395 4258390#7"/>
    </vehicle>
    <vehicle id="33" depart="16.50">
        <route edges="4074593#4 -4255903 4255889#8 4074591#2 4074591#3 4074591#4 4214032#4 4214036#2 4214036#3 4214036#4 4214041 4214037#5 4214037#6 4214037#7 4214037#8 4214037#9 4214039#0 4214039#1 4258362#0 4258362#1 4258362#2 4258362#3 4258362#4 4258362#5 4258315 4258351#0 4258351#1 4258311#0 4258311#1 -4258301#0 -4258313#1 -4258313#0 4258351#0 -4258352 4258392#5 4258392#6 4258392#7 4258392#8 4258392#9 4258392#10 4214037#9 4214037#10 4214037#11 4214037#0 4214037#1 4214037#2 4214037#3 4214037#4 4214037#5 4258388#0 -4258384 4258384 4258388#1 4258388#2 4258388#3 4258388#4 4258388#5 -4258378 4258386#3 4258386#4 4258386#5 4258386#6 4258386#7 4258386#8 4258386#9 4214036#4 4214036#5 4214036#6 4214036#7 4214036#0 49192811#0 49192811#1 49192811#2 49192811#3 49192811#4 49192811#5 49192811#6"/>
    </vehicle>
    <vehicle id="34" depart="17.00">
        <route edges="-4240065#1 4240065#1 4240064#2 4240044#8 4240044#9 4214037#3 4214037#4 4214037#5 4214037#6 4214037#7 4214037#8 4214037#9 4214039#0 4214039#1 4258362#0 4258362#1 4258362#2 4258362#3 4258362#4 4258362#5 4258315 4258351#0 4258351#1 4258311#0 4258311#1 4258311#2 4258302#1 -4258319#2 -4258319#1 -4258319#0 -4258351#3 -4258351#2 -4258351#1 -4258352 4258392#5 4258392#6 4258392#7 4258392#8 4258392#9 4258392#10 4214037#9 4214037#10 4214037#11 4214037#0 4214037#1 4240045#0 4240045#1 4240045#2 4240045#3 4240045#4 4240045#5 4240077#0 -4240076 4240076 4240077#1 4240175#1 4240175#2 4240175#3 4240085#0 4240085#1 4240085#2 4214037#1 4214037#2 4214037#3 4214037#4 4214037#5 4214037#6 4214037#7 4258391#0 4258391#1 -4258395 4258390#7 4258390#8 4214037#7 4214037#8 4214037#9 4214039#0 4214039#1 4258362#0 4258362#1 4258362#2 4258362#3 4258362#4 4258362#5 4258315 4258351#0 4258351#1 4258351#2 4258351#3 4258319#0 4258319#1 4258319#2 4258319#3 4258319#4 4258319#5 4258319#6"/>
    </vehicle>
    <vehicle id="35" depart="17.50">
        <route edges="-4240130#4 -4240108#1 -4240107#1 -4240107#0 4214038#1 4214038#2 4214038#3 4214037#11 4214037#0 4214037#1 4214037#2 4214037#3 4214040#0 4214040#1 4214036#6 4214036#7 4214036#0 49192811#0 49192811#1 4074591#6 4240038#0 4240001#0 4240001#1 4240046#8 4214036#1 4214036#2 4214036#3 4214036#4 4214041 4214037#5 4214037#6 4214037#7 4214037#8 4214037#9 4214039#0 4214039#1 4214039#2 4214039#3 4214039#4 4258294#0 4258294#1 -4258296 4258296 4258294#2 -4258297#1 4258298 4258299#1 4258312 -4258313#3 -4258313#2 -4258313#1 -4258313#0 4258351#0 -4258352 4258392#5 4258392#6 4258392#7 4258392#8 4258392#9 4258392#10 4214037#9 4214037#10 4214037#11 4240084#0 4240084#1 4240084#2 4240175#5 4240175#6 4240175#7 4214038#3 4214037#11 4214037#0 4214037#1 4214037#2 4214037#3 4214040#0 4214040#1 4214036#6 4214036#7 4214036#0 4214036#1 4214036#2 4258385#0 4258385#1 -4258367 4258367"/>
    </vehicle>
    <vehicle id="36" depart="18.00">