<?xml version="1.0"?>
<!-- generated on 2015-05-29 06:18:19.111051 by $Id: randomTrips.py 18096 2015-03-17 09:50:59Z behrisch $
  options: -n KarradaIn.net.xml -r KarradaIn.rou.xml -e 45.0 -p 0.5 <doubleminus>intermediate 3 -l
-->
<trips>
    <trip id="0" depart="0.00" from="4258361" to="4258294#4" via="4258349#2 4258397 -4240109" />
    <trip id="1" depart="0.50" from="4258392#3" to="-4258304#0" via="4074592#2 4074592#6 4240175#7" />
    <trip id="2" depart="1.00" from="4240076" to="-4240130#0" via="4255993#0 -4240058 -4258398#1" />
    <trip id="3" depart="1.50" from="-4258369" to="4214044" via="4258392#1 4258371 -4258397" />
    <trip id="4" depart="2.00" from="-4258352" to="4258299#0" via="4258369 4239998 4258391#5" />
    <trip id="5" depart="2.50" from="4258397" to="-4240110#1" via="-4258403#1 4240067 -4240083" />
    <trip id="6" depart="3.00" from="4240175#5" to="-4240008" via="-4255997#1 -4258372 4258351#6" />
    <trip id="7" depart="3.50" from="-4258294#6" to="4214041" via="-4258404#0 -4258404#0 4258378" />
    <trip id="8" depart="4.00" from="4258362#3" to="4240067" via="-4255992#1 4258358 4240037#3" />
    <trip id="9" depart="4.50" from="4255863" to="-4258398#1" via="-4258406#1 4240061 49192811#0" />
    <trip id="10" depart="5.00" from="4214045" to="-4239998" via="-4258371 4239997 4258311#5" />
    <trip id="11" depart="5.50" from="-4258311#0" to="-4258359#1" via="-4240130#4 -4255905 4258367" />
    <trip id="12" depart="6.00" from="4240044#8" to="4255888#2" via="4255992#0 4240130#4 4258395" />
    <trip id="13" depart="6.50" from="4258379" to="-4258366" via="4240037#1 4240078 -4239999#1" />
    <trip id="14" depart="7.00" from="-4258375#2" to="4255994#3" via="4258301#1 -4258301#1 4258302#1" />
    <trip id="15" depart="7.50" from="4258354" to="4240038#8" via="4258349#1 4258294#6 4240130#5" />
    <trip id="16" depart="8.00" from="4258404#0" to="4258349#3" via="4074593#6 4258385#6 4255997#1" />
    <trip id="17" depart="8.50" from="-4258375#2" to="49192811#6" via="-4258381 4240047#0 -4240063#0" />
    <trip id="18" depart="9.00" from="-4331468" to="4240047#7" via="4258396 4258305#1 4258300#1" />
    <trip id="19" depart="9.50" from="-4258404#0" to="4240058" via="-4240130#4 -4258349#1 -4258382" />
    <trip id="20" depart="10.00" from="4240130#5" to="4239999#1" via="4258358 4258368 4258388#6" />
    <trip id="21" depart="10.50" from="4258362#2" to="-4258358" via="-4258294#0 -4239996 4239997" />
    <trip id="22" depart="11.00" from="-4258377" to="4240083" via="-4258352 4258355 -4258398#0" />
    <trip id="23" depart="11.50" from="-4240130#4" to="-4240063#0" via="4214037#4 -4255993#0 -4258294#1" />
    <trip id="24" depart="12.00" from="-4258372" to="-4255866" via="-4240130#1 4240046#1 4240059#0" />
    <trip id="25" depart="12.50" from="4240085#0" to="-4240121" via="4255888#2 4258319#0 4214037#4" />
    <trip id="26" depart="13.00" from="4258388#2" to="-4258407#1" via="4240106 4240038#6 4255903" />
    <trip id="27" depart="13.50" from="4214038#1" to="4258380#0" via="4258294#5 4258383 4240046#5" />
    <trip id="28" depart="14.00" from="4258311#6" to="4240001#1" via="4258357 4240046#5 4258316" />
    <trip id="29" depart="14.50" from="4240037#5" to="4240045#7" via="4240037#5 4258390#7 4258390#3" />
    <trip id="30" depart="15.00" from="4258349#0" to="-4255998#0" via="-4258349#3 -4258367 -4258360" />
    <trip id="31" depart="15.50" from="4214032#0" to="4240130#4" via="-4258403#2 4240063#1 4258386#2" />
    <trip id="32" depart="16.00" from="-4240130#6" to="4258390#7" via="-4258352 4258318#1 -4240004" />
    <trip id="33" depart="16.50" from="4074593#4" to="49192811#6" via="-4258301#0 4258384 -4258378" />
    <trip id="34" depart="17.00" from="-4240065#1" to="4258319#6" via="4258302#1 -4240076 -4258395" />
    <trip id="35" depart="17.50" from="-4240130#4" to="4258367" via="4240038#0 -4258296 4240084#2" />
    <trip id="36" depart="18.00" from="-4258319#6" to="4255889#4" via="-4239999#1 4240044#3 -4239997" />
    <trip id="37" depart="18.50" from="4239997" to="-4258398#1" via="4240038#7 -4258382 4258354" />
    <trip id="38" depart="19.00" from="-4258398#1" to="-4258380#0" via="4258294#2 4240067 4240005" />
    <trip id="39" depart="19.50" from="4240084#1" to="4074593#3" via="4239997 -4255993#0 4258362#2" />
    <trip id="40" depart="20.00" from="4258400" to="-4258368" via="-4258355 4240057 4214039#4" />
    <trip id="41" depart="20.50" from="4258356" to="4258352" via="4240047#2 49192811#1 4240058" />
    <trip id="42" depart="21.00" from="4240047#4" to="4255904" via="-4258398#0 4258349#4 -4240005" />
    <trip id="43" depart="21.50" from="4255864" to="4240067" via="-4258361 -4258395 4240077#0" />
    <trip id="44" depart="22.00" from="-4239997" to="-4240061" via="4240081 4258380#1 4074593#6" />
    <trip id="45" depart="22.50" from="4258391#0" to="-4240130#0" via="4240121 -4240065#1 -4240005" />
    <trip id="46" depart="23.00" from="4258406#2" to="4258390#5" via="4240061 -4258395 -4255997#1" />
    <trip id="47" depart="23.50" from="-4239994" to="4240130#6" via="-4258382 4258378 4240046#5" />
    <trip id="48" depart="24.00" from="4258294#7" to="4074591#6" via="-4255903 4239994 -4240130#4" />
    <trip id="49" depart="24.50" from="4258371" to="-4258319#3" via="4240175#6 -4240109 4214040#1" />
    <trip id="50" depart="25.00" from="4258351#4" to="4258377" via="4240063#0 -4258349#3 4258392#3" />
    <trip id="51" depart="25.50" from="-4258400" to="4258398#1" via="4240130#4 4258320#0 -4258361" />
    <trip id="52" depart="26.00" from="-4239995" to="4258367" via="-4258377 -4240083 -4255997#0" />
    <trip id="53" depart="26.50" from="-4255993#0" to="4258390#3" via="4240037#3 -4255905 -4258406#2" />
    <trip id="54" depart="27.00" from="-4240062#0" to="4240044#0" via="-4258361 4258384 4258369" />
    <trip id="55" depart="27.50" from="4258299#0" to="-4258380#1" via="4258392#9 4258349#1 -4240121" />
    <trip id="56" depart="28.00" from="4258353" to="4240108#1" via="4240047#3 4258369 4258368" />
    <trip id="57" depart="28.50" from="4258390#4" to="-4255864" via="4240062#1 4258392#0 -4258398#1" />
    <trip id="58" depart="29.00" from="4258380#0" to="-4255865" via="4240037#4 -4255992#0 4258379" />
    <trip id="59" depart="29.50" from="-4258298" to="-4240081" via="4258373 -4239995 4240105#1" />
    <trip id="60" depart="30.00" from="4240057" to="-4240130#5" via="4258383 -4240000#1 4258367" />
    <trip id="61" depart="30.50" from="4255866" to="-4258366" via="-4258349#1 4240045#0 4258319#0" />
    <trip id="62" depart="31.00" from="4240044#3" to="4258351#8" via="4258361 4258354 4258358" />
    <trip id="63" depart="31.50" from="4240084#2" to="4239999#1" via="-4239995 4258370 -4240130#6" />
    <trip id="64" depart="32.00" from="4255903" to="-4241782" via="4258294#5 4258382 -4258351#5" />
    <trip id="65" depart="32.50" from="4258380#0" to="-4240110#1" via="4258388#4 -4258354 4258394" />
    <trip id="66" depart="33.00" from="4255997#1" to="4239995" via="4258391#6 -4258313#8 -4240056" />
    <trip id="67" depart="33.50" from="4255889#2" to="4258384" via="4239994 -4239995 4258351#3" />
    <trip id="68" depart="34.00" from="-4239997" to="-4258299#1" via="4258391#7 4214041 4240064#1" />
    <trip id="69" depart="34.50" from="-4240121" to="-4258383" via="-4258354 -4240130#6 4255889#2" />
    <trip id="70" depart="35.00" from="4255889#3" to="-4240082" via="4258404#1 4258320#0 4255998#1" />
    <trip id="71" depart="35.50" from="4214040#0" to="4258386#4" via="4258349#1 -4258313#8 4240001#1" />
    <trip id="72" depart="36.00" from="4255864" to="-4255994#0" via="-4240109 4255906 -4240121" />
    <trip id="73" depart="36.50" from="-4258397" to="4258320#0" via="-4258311#0 4258366 4240063#0" />
    <trip id="74" depart="37.00" from="-4240060" to="4255888#5" via="-4240130#4 4240109 4258357" />
    <trip id="75" depart="37.50" from="-4239994" to="4214044" via="4258390#0 4214041 4258351#3" />
    <trip id="76" depart="38.00" from="4240046#5" to="4258397" via="4258318#2 -4258373 -4258320#0" />
    <trip id="77" depart="38.50" from="4255863" to="-4258368" via="4240064#0 4258379 4240105#1" />
    <trip id="78" depart="39.00" from="4214032#0" to="-4255997#0" via="4258397 -4240108#1 4214039#0" />
    <trip id="79" depart="39.50" from="-4258357" to="4214032#4" via="-4240110#1 -4258402#1 -4258356" />
    <trip id="80" depart="40.00" from="4258360" to="-4258301#1" via="4258319#6 4258404#1 -4258405#2" />
    <trip id="81" depart="40.50" from="4214032#0" to="4258380#1" via="-4258306 -4240003 -4240077#0" />
    <trip id="82" depart="41.00" from="4258351#5" to="4240175#7" via="4240044#3 -4258351#0 -4240000#1" />
    <trip id="83" depart="41.50" from="4258392#1" to="4258385#3" via="-4240109 -4258302#0 4240062#1" />
    <trip id="84" depart="42.00" from="4258349#4" to="4258385#3" via="-4255905 -4240110#1 4240121" />
    <trip id="85" depart="42.50" from="-4255906" to="4240077#1" via="-4258300#1 4239994 -4240083" />
    <trip id="86" depart="43.00" from="4240121" to="49192811#6" via="4258390#3 -4258304#1 4258355" />
    <trip id="87" depart="43.50" from="4258349#4" to="4240046#2" via="4255997#0 -4255993#0 -4255997#0" />
    <trip id="88" depart="44.00" from="4258314#0" to="4074593#7" via="4258362#4 -4258396 -4258398#0" />
    <trip id="89" depart="44.50" from="-4258294#3" to="4240175#5" via="-4258383 -4258294#1 -4258399" />
</trips>
