<?xml version="1.0" encoding="UTF-8"?>

<!-- generated on Thu Jun  4 03:25:16 2015 by SUMO netconvert Version 0.23.0
<?xml version="1.0" encoding="UTF-8"?>

<configuration xmlns:xsi="http://www.w3.org/2001/XMLSchema-instance" xsi:noNamespaceSchemaLocation="http://sumo.dlr.de/xsd/netconvertConfiguration.xsd">

    <input>
        <osm-files value="Manhattan.osm"/>
    </input>

    <output>
        <output-file value="Manhattan.net.xml"/>
    </output>

    <projection>
        <proj.utm value="true"/>
    </projection>

</configuration>
-->

<net version="0.13" xmlns:xsi="http://www.w3.org/2001/XMLSchema-instance" xsi:noNamespaceSchemaLocation="http://sumo.dlr.de/xsd/net_file.xsd">

    <location netOffset="-586447.10,-4512024.30" convBoundary="0.00,0.00,2834.97,4916.43" origBoundary="-73.975905,40.754634,-73.941625,40.798616" projParameter="+proj=utm +zone=18 +ellps=WGS84 +datum=WGS84 +units=m +no_defs"/>

    <edge id=":100522728_0" function="internal">
        <lane id=":100522728_0_0" index="0" speed="27.78" length="0.10" shape="55.33,70.49 55.31,70.46"/>
        <lane id=":100522728_0_1" index="1" speed="27.78" length="0.10" shape="52.38,71.98 52.39,71.99"/>
    </edge>
    <edge id=":42428039_0" function="internal">
        <lane id=":42428039_0_0" index="0" speed="13.89" length="0.10" shape="2442.10,2467.55 2442.10,2467.55"/>
    </edge>
    <edge id=":42428043_0" function="internal">
        <lane id=":42428043_0_0" index="0" speed="13.89" length="0.10" shape="2479.87,2537.52 2479.87,2537.52"/>
    </edge>
    <edge id=":42428047_0" function="internal">
        <lane id=":42428047_0_0" index="0" speed="13.89" length="0.10" shape="2555.43,2677.82 2555.43,2677.82"/>
    </edge>
    <edge id=":42429314_0" function="internal">
        <lane id=":42429314_0_0" index="0" speed="13.89" length="4.82" shape="1273.24,3003.90 1271.76,3003.76 1271.01,3003.23 1270.98,3002.30 1271.68,3000.99"/>
    </edge>
    <edge id=":42429324_0" function="internal">
        <lane id=":42429324_0_0" index="0" speed="20.83" length="5.00" shape="1413.56,2928.20 1412.46,2929.02 1411.89,2929.99 1411.84,2931.12 1412.32,2932.40"/>
    </edge>
    <edge id=":42429324_1" function="internal">
        <lane id=":42429324_1_0" index="0" speed="13.89" length="9.49" shape="1413.56,2928.20 1405.22,2932.73"/>
    </edge>
    <edge id=":42429324_2" function="internal">
        <lane id=":42429324_2_0" index="0" speed="13.89" length="2.41" shape="1413.56,2928.20 1412.07,2928.07 1411.32,2927.54"/>
    </edge>
    <edge id=":42429324_6" function="internal">
        <lane id=":42429324_6_0" index="0" speed="13.89" length="2.41" shape="1411.32,2927.54 1411.28,2926.62 1411.97,2925.30"/>
    </edge>
    <edge id=":42429324_3" function="internal">
        <lane id=":42429324_3_0" index="0" speed="13.89" length="9.47" shape="1403.65,2929.82 1411.97,2925.30"/>
    </edge>
    <edge id=":42429324_4" function="internal">
        <lane id=":42429324_4_0" index="0" speed="20.83" length="2.95" shape="1403.65,2929.82 1405.03,2929.54 1406.45,2930.13"/>
    </edge>
    <edge id=":42429324_5" function="internal">
        <lane id=":42429324_5_0" index="0" speed="13.89" length="2.41" shape="1403.65,2929.82 1405.13,2929.96 1405.89,2930.49"/>
    </edge>
    <edge id=":42429324_7" function="internal">
        <lane id=":42429324_7_0" index="0" speed="20.83" length="4.89" shape="1406.45,2930.13 1407.91,2931.61 1409.42,2933.98"/>
    </edge>
    <edge id=":42429324_8" function="internal">
        <lane id=":42429324_8_0" index="0" speed="13.89" length="2.41" shape="1405.89,2930.49 1405.92,2931.42 1405.22,2932.73"/>
    </edge>
    <edge id=":42429330_0" function="internal">
        <lane id=":42429330_0_0" index="0" speed="20.83" length="5.00" shape="1562.32,2848.00 1561.22,2848.81 1560.64,2849.78 1560.60,2850.91 1561.08,2852.20"/>
    </edge>
    <edge id=":42429330_1" function="internal">
        <lane id=":42429330_1_0" index="0" speed="13.89" length="9.50" shape="1562.32,2848.00 1553.96,2852.51"/>
    </edge>
    <edge id=":42429330_2" function="internal">
        <lane id=":42429330_2_0" index="0" speed="13.89" length="2.41" shape="1562.32,2848.00 1560.84,2847.86 1560.09,2847.33"/>
    </edge>
    <edge id=":42429330_10" function="internal">
        <lane id=":42429330_10_0" index="0" speed="13.89" length="2.41" shape="1560.09,2847.33 1560.06,2846.41 1560.76,2845.09"/>
    </edge>
    <edge id=":42429330_3" function="internal">
        <lane id=":42429330_3_0" index="0" speed="20.83" length="5.00" shape="1556.56,2843.83 1557.37,2844.93 1558.34,2845.51 1559.47,2845.57 1560.76,2845.09"/>
    </edge>
    <edge id=":42429330_4" function="internal">
        <lane id=":42429330_4_0" index="0" speed="27.78" length="9.53" shape="1556.56,2843.83 1561.08,2852.20"/>
        <lane id=":42429330_4_1" index="1" speed="27.78" length="9.53" shape="1553.65,2845.38 1558.18,2853.78"/>
    </edge>
    <edge id=":42429330_6" function="internal">
        <lane id=":42429330_6_0" index="0" speed="20.83" length="7.86" shape="1553.65,2845.38 1554.80,2847.95 1555.24,2849.99 1554.96,2851.51 1553.96,2852.51"/>
    </edge>
    <edge id=":42429330_7" function="internal">
        <lane id=":42429330_7_0" index="0" speed="13.89" length="9.50" shape="1552.40,2849.60 1560.76,2845.09"/>
    </edge>
    <edge id=":42429330_8" function="internal">
        <lane id=":42429330_8_0" index="0" speed="20.83" length="2.95" shape="1552.40,2849.60 1553.77,2849.31 1555.20,2849.91"/>
    </edge>
    <edge id=":42429330_9" function="internal">
        <lane id=":42429330_9_0" index="0" speed="13.89" length="2.41" shape="1552.40,2849.60 1553.88,2849.74 1554.63,2850.27"/>
    </edge>
    <edge id=":42429330_11" function="internal">
        <lane id=":42429330_11_0" index="0" speed="20.83" length="4.91" shape="1555.20,2849.91 1556.66,2851.40 1558.18,2853.78"/>
    </edge>
    <edge id=":42429330_12" function="internal">
        <lane id=":42429330_12_0" index="0" speed="13.89" length="2.41" shape="1554.63,2850.27 1554.66,2851.19 1553.96,2852.51"/>
    </edge>
    <edge id=":42429334_0" function="internal">
        <lane id=":42429334_0_0" index="0" speed="20.83" length="5.01" shape="1683.71,2786.08 1682.89,2784.97 1681.92,2784.39 1680.79,2784.34 1679.50,2784.81"/>
    </edge>
    <edge id=":42429334_1" function="internal">
        <lane id=":42429334_1_0" index="0" speed="27.78" length="9.52" shape="1683.71,2786.08 1679.19,2777.68"/>
        <lane id=":42429334_1_1" index="1" speed="27.78" length="9.52" shape="1686.61,2784.50 1682.10,2776.13"/>
    </edge>
    <edge id=":42429334_3" function="internal">
        <lane id=":42429334_3_0" index="0" speed="20.83" length="7.86" shape="1686.61,2784.50 1685.45,2781.95 1685.01,2779.91 1685.29,2778.39 1686.30,2777.40"/>
    </edge>
    <edge id=":42429334_4" function="internal">
        <lane id=":42429334_4_0" index="0" speed="13.89" length="9.50" shape="1687.87,2780.30 1679.50,2784.81"/>
    </edge>
    <edge id=":42429334_5" function="internal">
        <lane id=":42429334_5_0" index="0" speed="20.83" length="3.07" shape="1687.87,2780.30 1686.48,2780.59 1685.05,2780.00 1684.98,2779.92"/>
    </edge>
    <edge id=":42429334_6" function="internal">
        <lane id=":42429334_6_0" index="0" speed="13.89" length="2.41" shape="1687.87,2780.30 1686.39,2780.16 1685.63,2779.63"/>
    </edge>
    <edge id=":42429334_10" function="internal">
        <lane id=":42429334_10_0" index="0" speed="20.83" length="4.79" shape="1684.98,2779.92 1683.59,2778.51 1682.10,2776.13"/>
    </edge>
    <edge id=":42429334_11" function="internal">
        <lane id=":42429334_11_0" index="0" speed="13.89" length="2.41" shape="1685.63,2779.63 1685.60,2778.71 1686.30,2777.40"/>
    </edge>
    <edge id=":42429334_7" function="internal">
        <lane id=":42429334_7_0" index="0" speed="20.83" length="5.02" shape="1677.93,2781.91 1679.04,2781.09 1679.61,2780.11 1679.66,2778.98 1679.19,2777.68"/>
    </edge>
    <edge id=":42429334_8" function="internal">
        <lane id=":42429334_8_0" index="0" speed="13.89" length="9.50" shape="1677.93,2781.91 1686.30,2777.40"/>
    </edge>
    <edge id=":42429334_9" function="internal">
        <lane id=":42429334_9_0" index="0" speed="13.89" length="2.41" shape="1677.93,2781.91 1679.42,2782.05 1680.17,2782.58"/>
    </edge>
    <edge id=":42429334_12" function="internal">
        <lane id=":42429334_12_0" index="0" speed="13.89" length="2.41" shape="1680.17,2782.58 1680.20,2783.50 1679.50,2784.81"/>
    </edge>
    <edge id=":42429338_0" function="internal">
        <lane id=":42429338_0_0" index="0" speed="13.89" length="0.10" shape="1819.78,2709.18 1819.78,2709.18"/>
    </edge>
    <edge id=":42429338_1" function="internal">
        <lane id=":42429338_1_0" index="0" speed="13.89" length="2.41" shape="1819.78,2709.18 1818.30,2709.04 1817.55,2708.51"/>
    </edge>
    <edge id=":42429338_4" function="internal">
        <lane id=":42429338_4_0" index="0" speed="13.89" length="2.41" shape="1817.55,2708.51 1817.52,2707.58 1818.22,2706.27"/>
    </edge>
    <edge id=":42429338_2" function="internal">
        <lane id=":42429338_2_0" index="0" speed="13.89" length="0.10" shape="1818.22,2706.27 1818.22,2706.27"/>
    </edge>
    <edge id=":42429338_3" function="internal">
        <lane id=":42429338_3_0" index="0" speed="13.89" length="2.41" shape="1818.22,2706.27 1819.70,2706.41 1820.45,2706.94"/>
    </edge>
    <edge id=":42429338_5" function="internal">
        <lane id=":42429338_5_0" index="0" speed="13.89" length="2.41" shape="1820.45,2706.94 1820.48,2707.86 1819.78,2709.18"/>
    </edge>
    <edge id=":42429340_0" function="internal">
        <lane id=":42429340_0_0" index="0" speed="13.89" length="0.10" shape="2010.03,2606.60 2010.07,2606.57"/>
    </edge>
    <edge id=":42429340_1" function="internal">
        <lane id=":42429340_1_0" index="0" speed="13.89" length="2.41" shape="2010.03,2606.60 2008.55,2606.41 2007.81,2605.86"/>
    </edge>
    <edge id=":42429340_4" function="internal">
        <lane id=":42429340_4_0" index="0" speed="13.89" length="2.41" shape="2007.81,2605.86 2007.82,2604.94 2008.55,2603.64"/>
    </edge>
    <edge id=":42429340_2" function="internal">
        <lane id=":42429340_2_0" index="0" speed="13.89" length="0.10" shape="2008.53,2603.66 2008.55,2603.64"/>
    </edge>
    <edge id=":42429340_3" function="internal">
        <lane id=":42429340_3_0" index="0" speed="13.89" length="2.41" shape="2008.53,2603.66 2010.01,2603.81 2010.76,2604.34"/>
    </edge>
    <edge id=":42429340_5" function="internal">
        <lane id=":42429340_5_0" index="0" speed="13.89" length="2.41" shape="2010.76,2604.34 2010.78,2605.27 2010.07,2606.57"/>
    </edge>
    <edge id=":42429342_0" function="internal">
        <lane id=":42429342_0_0" index="0" speed="13.89" length="4.82" shape="2209.73,2495.17 2211.21,2495.30 2211.97,2495.82 2212.01,2496.74 2211.32,2498.06"/>
    </edge>
    <edge id=":42429685_0" function="internal">
        <lane id=":42429685_0_0" index="0" speed="27.78" length="0.10" shape="931.56,1688.48 931.56,1688.48"/>
        <lane id=":42429685_0_1" index="1" speed="27.78" length="0.10" shape="928.65,1690.05 928.65,1690.04"/>
    </edge>
    <edge id=":42429688_0" function="internal">
        <lane id=":42429688_0_0" index="0" speed="27.78" length="0.10" shape="1056.08,1621.57 1056.08,1621.57"/>
        <lane id=":42429688_0_1" index="1" speed="27.78" length="0.10" shape="1058.98,1620.01 1058.98,1620.01"/>
    </edge>
    <edge id=":42429974_0" function="internal">
        <lane id=":42429974_0_0" index="0" speed="27.78" length="0.10" shape="666.73,1199.20 666.73,1199.20"/>
        <lane id=":42429974_0_1" index="1" speed="27.78" length="0.10" shape="663.82,1200.76 663.82,1200.76"/>
    </edge>
    <edge id=":42430056_0" function="internal">
        <lane id=":42430056_0_0" index="0" speed="27.78" length="0.10" shape="1129.50,2051.15 1129.50,2051.15"/>
        <lane id=":42430056_0_1" index="1" speed="27.78" length="0.10" shape="1126.60,2052.72 1126.60,2052.72"/>
    </edge>
    <edge id=":42430060_0" function="internal">
        <lane id=":42430060_0_0" index="0" speed="27.78" length="0.10" shape="1252.18,1985.26 1252.18,1985.26"/>
        <lane id=":42430060_0_1" index="1" speed="27.78" length="0.10" shape="1255.09,1983.70 1255.09,1983.70"/>
    </edge>
    <edge id=":42430479_0" function="internal">
        <lane id=":42430479_0_0" index="0" speed="27.78" length="0.10" shape="2295.11,3918.78 2295.11,3918.78"/>
        <lane id=":42430479_0_1" index="1" speed="27.78" length="0.10" shape="2298.02,3917.22 2298.02,3917.22"/>
    </edge>
    <edge id=":42431652_0" function="internal">
        <lane id=":42431652_0_0" index="0" speed="27.78" length="0.10" shape="703.82,1268.34 703.82,1268.33"/>
        <lane id=":42431652_0_1" index="1" speed="27.78" length="0.10" shape="700.92,1269.90 700.92,1269.91"/>
    </edge>
    <edge id=":42431677_0" function="internal">
        <lane id=":42431677_0_0" index="0" speed="27.78" length="0.10" shape="855.41,1548.38 855.40,1548.37"/>
        <lane id=":42431677_0_1" index="1" speed="27.78" length="0.10" shape="852.50,1549.94 852.51,1549.95"/>
    </edge>
    <edge id=":42431678_0" function="internal">
        <lane id=":42431678_0_0" index="0" speed="27.78" length="0.10" shape="980.04,1480.86 980.04,1480.86"/>
        <lane id=":42431678_0_1" index="1" speed="27.78" length="0.10" shape="982.95,1479.29 982.95,1479.30"/>
    </edge>
    <edge id=":42432834_0" function="internal">
        <lane id=":42432834_0_0" index="0" speed="27.78" length="0.10" shape="437.22,774.36 437.22,774.35"/>
        <lane id=":42432834_0_1" index="1" speed="27.78" length="0.10" shape="434.31,775.91 434.32,775.91"/>
    </edge>
    <edge id=":42434166_0" function="internal">
        <lane id=":42434166_0_0" index="0" speed="27.78" length="0.10" shape="1752.60,3562.35 1752.60,3562.35"/>
        <lane id=":42434166_0_1" index="1" speed="27.78" length="0.10" shape="1749.69,3563.91 1749.69,3563.91"/>
    </edge>
    <edge id=":42434168_0" function="internal">
        <lane id=":42434168_0_0" index="0" speed="27.78" length="0.10" shape="1900.88,3481.80 1900.88,3481.80"/>
        <lane id=":42434168_0_1" index="1" speed="27.78" length="0.10" shape="1897.98,3483.37 1897.98,3483.37"/>
    </edge>
    <edge id=":42434169_0" function="internal">
        <lane id=":42434169_0_0" index="0" speed="27.78" length="0.10" shape="2023.49,3415.21 2023.48,3415.20"/>
        <lane id=":42434169_0_1" index="1" speed="27.78" length="0.10" shape="2026.38,3413.62 2026.39,3413.64"/>
    </edge>
    <edge id=":42434384_0" function="internal">
        <lane id=":42434384_0_0" index="0" speed="27.78" length="0.10" shape="2604.16,4491.96 2604.16,4491.96"/>
        <lane id=":42434384_0_1" index="1" speed="27.78" length="0.10" shape="2607.06,4490.40 2607.06,4490.40"/>
    </edge>
    <edge id=":42434895_0" function="internal">
        <lane id=":42434895_0_0" index="0" speed="27.78" length="0.10" shape="2333.37,3989.81 2333.37,3989.81"/>
        <lane id=":42434895_0_1" index="1" speed="27.78" length="0.10" shape="2336.28,3988.24 2336.28,3988.24"/>
    </edge>
    <edge id=":42435395_0" function="internal">
        <lane id=":42435395_0_0" index="0" speed="27.78" length="0.10" shape="2791.88,4840.68 2791.87,4840.68"/>
        <lane id=":42435395_0_1" index="1" speed="27.78" length="0.10" shape="2794.78,4839.10 2794.78,4839.11"/>
    </edge>
    <edge id=":42435504_0" function="internal">
        <lane id=":42435504_0_0" index="0" speed="27.78" length="0.10" shape="1479.27,2699.80 1479.27,2699.80"/>
        <lane id=":42435504_0_1" index="1" speed="27.78" length="0.10" shape="1476.36,2701.37 1476.36,2701.37"/>
    </edge>
    <edge id=":42435509_0" function="internal">
        <lane id=":42435509_0_0" index="0" speed="27.78" length="0.10" shape="1601.87,2633.73 1601.87,2633.73"/>
        <lane id=":42435509_0_1" index="1" speed="27.78" length="0.10" shape="1604.77,2632.16 1604.77,2632.16"/>
    </edge>
    <edge id=":42436481_0" function="internal">
        <lane id=":42436481_0_0" index="0" speed="27.78" length="0.10" shape="1011.80,1832.89 1011.81,1832.90"/>
        <lane id=":42436481_0_1" index="1" speed="27.78" length="0.10" shape="1008.92,1834.50 1008.90,1834.47"/>
    </edge>
    <edge id=":42436484_0" function="internal">
        <lane id=":42436484_0_0" index="0" speed="27.78" length="0.10" shape="1133.97,1767.00 1133.96,1766.99"/>
        <lane id=":42436484_0_1" index="1" speed="27.78" length="0.10" shape="1136.86,1765.43 1136.87,1765.44"/>
    </edge>
    <edge id=":42436514_0" function="internal">
        <lane id=":42436514_0_0" index="0" speed="27.78" length="0.10" shape="591.81,1058.84 591.81,1058.84"/>
        <lane id=":42436514_0_1" index="1" speed="27.78" length="0.10" shape="588.89,1060.38 588.90,1060.39"/>
    </edge>
    <edge id=":42436539_0" function="internal">
        <lane id=":42436539_0_0" index="0" speed="20.83" length="5.00" shape="1528.91,3141.65 1527.81,3142.46 1527.23,3143.44 1527.18,3144.56 1527.66,3145.85"/>
    </edge>
    <edge id=":42436539_1" function="internal">
        <lane id=":42436539_1_0" index="0" speed="13.89" length="9.50" shape="1528.91,3141.65 1520.55,3146.16"/>
    </edge>
    <edge id=":42436539_2" function="internal">
        <lane id=":42436539_2_0" index="0" speed="27.78" length="6.22" shape="1524.71,3140.39 1527.66,3145.85"/>
        <lane id=":42436539_2_1" index="1" speed="27.78" length="6.22" shape="1521.80,3141.95 1524.76,3147.43"/>
    </edge>
    <edge id=":42436539_4" function="internal">
        <lane id=":42436539_4_0" index="0" speed="20.83" length="5.01" shape="1521.80,3141.95 1522.28,3143.24 1522.22,3144.37 1521.65,3145.35 1520.55,3146.16"/>
    </edge>
    <edge id=":42436541_0" function="internal">
        <lane id=":42436541_0_0" index="0" speed="20.83" length="5.00" shape="1677.71,3061.32 1676.61,3062.13 1676.03,3063.11 1675.98,3064.24 1676.45,3065.52"/>
    </edge>
    <edge id=":42436541_1" function="internal">
        <lane id=":42436541_1_0" index="0" speed="13.89" length="9.50" shape="1677.71,3061.32 1669.35,3065.83"/>
    </edge>
    <edge id=":42436541_2" function="internal">
        <lane id=":42436541_2_0" index="0" speed="27.78" length="6.20" shape="1673.51,3060.06 1676.45,3065.52"/>
        <lane id=":42436541_2_1" index="1" speed="27.78" length="6.20" shape="1670.60,3061.63 1673.55,3067.09"/>
    </edge>
    <edge id=":42436541_4" function="internal">
        <lane id=":42436541_4_0" index="0" speed="20.83" length="5.00" shape="1670.60,3061.63 1671.08,3062.91 1671.02,3064.04 1670.45,3065.02 1669.35,3065.83"/>
    </edge>
    <edge id=":42436544_0" function="internal">
        <lane id=":42436544_0_0" index="0" speed="20.83" length="5.00" shape="1798.98,2999.39 1798.16,2998.29 1797.19,2997.71 1796.06,2997.66 1794.78,2998.14"/>
    </edge>
    <edge id=":42436544_1" function="internal">
        <lane id=":42436544_1_0" index="0" speed="27.78" length="6.21" shape="1798.98,2999.39 1796.03,2993.91"/>
        <lane id=":42436544_1_1" index="1" speed="27.78" length="6.21" shape="1801.88,2997.82 1798.94,2992.36"/>
    </edge>
    <edge id=":42436544_3" function="internal">
        <lane id=":42436544_3_0" index="0" speed="13.89" length="9.51" shape="1803.14,2993.62 1794.78,2998.14"/>
    </edge>
    <edge id=":42436544_4" function="internal">
        <lane id=":42436544_4_0" index="0" speed="20.83" length="5.00" shape="1803.14,2993.62 1801.85,2994.09 1800.72,2994.04 1799.75,2993.46 1798.94,2992.36"/>
    </edge>
    <edge id=":42436546_0" function="internal">
        <lane id=":42436546_0_0" index="0" speed="13.89" length="0.10" shape="1935.14,2922.37 1935.14,2922.37"/>
    </edge>
    <edge id=":42436549_0" function="internal">
        <lane id=":42436549_0_0" index="0" speed="13.89" length="0.10" shape="2125.05,2819.88 2125.05,2819.88"/>
    </edge>
    <edge id=":42436619_0" function="internal">
        <lane id=":42436619_0_0" index="0" speed="27.78" length="0.10" shape="2370.60,4058.60 2370.60,4058.59"/>
        <lane id=":42436619_0_1" index="1" speed="27.78" length="0.10" shape="2373.51,4057.02 2373.51,4057.02"/>
    </edge>
    <edge id=":42436644_0" function="internal">
        <lane id=":42436644_0_0" index="0" speed="27.78" length="0.10" shape="2528.12,4351.10 2528.12,4351.10"/>
        <lane id=":42436644_0_1" index="1" speed="27.78" length="0.10" shape="2531.02,4349.53 2531.02,4349.54"/>
    </edge>
    <edge id=":42436703_0" function="internal">
        <lane id=":42436703_0_0" index="0" speed="27.78" length="0.10" shape="280.99,489.82 280.97,489.78"/>
        <lane id=":42436703_0_1" index="1" speed="27.78" length="0.10" shape="278.10,491.41 278.10,491.41"/>
    </edge>
    <edge id=":42436914_0" function="internal">
        <lane id=":42436914_0_0" index="0" speed="27.78" length="0.10" shape="1243.04,2261.71 1243.04,2261.71"/>
        <lane id=":42436914_0_1" index="1" speed="27.78" length="0.10" shape="1240.14,2263.28 1240.14,2263.28"/>
    </edge>
    <edge id=":42436917_0" function="internal">
        <lane id=":42436917_0_0" index="0" speed="27.78" length="0.10" shape="1365.18,2195.00 1365.20,2195.04"/>
        <lane id=":42436917_0_1" index="1" speed="27.78" length="0.10" shape="1368.12,2193.50 1368.12,2193.49"/>
    </edge>
    <edge id=":42437428_0" function="internal">
        <lane id=":42437428_0_0" index="0" speed="27.78" length="0.10" shape="818.11,1478.95 818.11,1478.95"/>
        <lane id=":42437428_0_1" index="1" speed="27.78" length="0.10" shape="815.20,1480.51 815.20,1480.51"/>
    </edge>
    <edge id=":42437433_0" function="internal">
        <lane id=":42437433_0_0" index="0" speed="27.78" length="0.10" shape="942.21,1410.30 942.21,1410.31"/>
        <lane id=":42437433_0_1" index="1" speed="27.78" length="0.10" shape="945.11,1408.74 945.11,1408.74"/>
    </edge>
    <edge id=":42438490_0" function="internal">
        <lane id=":42438490_0_0" index="0" speed="27.78" length="0.10" shape="1326.08,2415.71 1326.08,2415.71"/>
        <lane id=":42438490_0_1" index="1" speed="27.78" length="0.10" shape="1323.17,2417.27 1323.17,2417.27"/>
    </edge>
    <edge id=":42438498_0" function="internal">
        <lane id=":42438498_0_0" index="0" speed="27.78" length="0.10" shape="1448.54,2349.57 1448.56,2349.60"/>
        <lane id=":42438498_0_1" index="1" speed="27.78" length="0.10" shape="1451.45,2348.00 1451.44,2347.99"/>
    </edge>
    <edge id=":42438795_0" function="internal">
        <lane id=":42438795_0_0" index="0" speed="27.78" length="0.10" shape="1052.67,1908.67 1052.67,1908.67"/>
        <lane id=":42438795_0_1" index="1" speed="27.78" length="0.10" shape="1049.76,1910.24 1049.76,1910.24"/>
    </edge>
    <edge id=":42438798_0" function="internal">
        <lane id=":42438798_0_0" index="0" speed="27.78" length="0.10" shape="1175.03,1842.47 1175.03,1842.47"/>
        <lane id=":42438798_0_1" index="1" speed="27.78" length="0.10" shape="1177.93,1840.89 1177.93,1840.89"/>
    </edge>
    <edge id=":42438886_0" function="internal">
        <lane id=":42438886_0_0" index="0" speed="27.78" length="0.10" shape="130.69,210.18 130.69,210.18"/>
        <lane id=":42438886_0_1" index="1" speed="27.78" length="0.10" shape="127.81,211.78 127.81,211.78"/>
    </edge>
    <edge id=":42438949_0" function="internal">
        <lane id=":42438949_0_0" index="0" speed="27.78" length="0.10" shape="2257.46,3848.87 2257.47,3848.88"/>
        <lane id=":42438949_0_1" index="1" speed="27.78" length="0.10" shape="2260.37,3847.31 2260.37,3847.31"/>
    </edge>
    <edge id=":42439395_0" function="internal">
        <lane id=":42439395_0_0" index="0" speed="27.78" length="0.10" shape="1402.72,2557.84 1402.72,2557.84"/>
        <lane id=":42439395_0_1" index="1" speed="27.78" length="0.10" shape="1399.82,2559.40 1399.82,2559.41"/>
    </edge>
    <edge id=":42439399_0" function="internal">
        <lane id=":42439399_0_0" index="0" speed="27.78" length="0.10" shape="1525.31,2491.76 1525.31,2491.76"/>
        <lane id=":42439399_0_1" index="1" speed="27.78" length="0.10" shape="1528.22,2490.20 1528.22,2490.20"/>
    </edge>
    <edge id=":42439557_0" function="internal">
        <lane id=":42439557_0_0" index="0" speed="27.78" length="0.10" shape="1090.76,1979.30 1090.76,1979.30"/>
        <lane id=":42439557_0_1" index="1" speed="27.78" length="0.10" shape="1087.86,1980.86 1087.86,1980.86"/>
    </edge>
    <edge id=":42439559_0" function="internal">
        <lane id=":42439559_0_0" index="0" speed="27.78" length="0.10" shape="1213.30,1912.92 1213.30,1912.93"/>
        <lane id=":42439559_0_1" index="1" speed="27.78" length="0.10" shape="1216.21,1911.36 1216.21,1911.36"/>
    </edge>
    <edge id=":42440456_0" function="internal">
        <lane id=":42440456_0_0" index="0" speed="27.78" length="0.13" shape="207.96,349.63 207.98,349.66"/>
        <lane id=":42440456_0_1" index="1" speed="27.78" length="0.13" shape="205.01,351.11 205.08,351.25"/>
    </edge>
    <edge id=":42443040_0" function="internal">
        <lane id=":42443040_0_0" index="0" speed="13.89" length="0.10" shape="2049.83,2679.33 2049.83,2679.33"/>
    </edge>
    <edge id=":42443042_0" function="internal">
        <lane id=":42443042_0_0" index="0" speed="13.89" length="0.10" shape="2087.28,2749.15 2087.28,2749.15"/>
    </edge>
    <edge id=":42443044_0" function="internal">
        <lane id=":42443044_0_0" index="0" speed="13.89" length="0.10" shape="2162.68,2889.82 2162.68,2889.82"/>
    </edge>
    <edge id=":42443613_0" function="internal">
        <lane id=":42443613_0_0" index="0" speed="27.78" length="0.10" shape="396.87,698.77 396.87,698.78"/>
        <lane id=":42443613_0_1" index="1" speed="27.78" length="0.10" shape="393.97,700.35 393.96,700.33"/>
    </edge>
    <edge id=":42444487_0" function="internal">
        <lane id=":42444487_0_0" index="0" speed="27.78" length="0.10" shape="1715.31,3493.26 1715.31,3493.26"/>
        <lane id=":42444487_0_1" index="1" speed="27.78" length="0.10" shape="1712.41,3494.82 1712.41,3494.82"/>
    </edge>
    <edge id=":42444491_0" function="internal">
        <lane id=":42444491_0_0" index="0" speed="27.78" length="0.10" shape="1863.89,3413.20 1863.89,3413.20"/>
        <lane id=":42444491_0_1" index="1" speed="27.78" length="0.10" shape="1860.99,3414.77 1860.99,3414.77"/>
    </edge>
    <edge id=":42444495_0" function="internal">
        <lane id=":42444495_0_0" index="0" speed="27.78" length="0.10" shape="1986.78,3347.01 1986.78,3347.01"/>
        <lane id=":42444495_0_1" index="1" speed="27.78" length="0.10" shape="1989.68,3345.45 1989.68,3345.45"/>
    </edge>
    <edge id=":42444810_0" function="internal">
        <lane id=":42444810_0_0" index="0" speed="20.83" length="5.01" shape="1562.63,3210.24 1563.45,3211.34 1564.43,3211.92 1565.56,3211.98 1566.84,3211.50"/>
    </edge>
    <edge id=":42444810_1" function="internal">
        <lane id=":42444810_1_0" index="0" speed="27.78" length="6.21" shape="1562.63,3210.24 1565.59,3215.70"/>
        <lane id=":42444810_1_1" index="1" speed="27.78" length="6.21" shape="1559.73,3211.81 1562.68,3217.27"/>
    </edge>
    <edge id=":42444810_3" function="internal">
        <lane id=":42444810_3_0" index="0" speed="13.89" length="9.50" shape="1558.48,3216.02 1566.84,3211.50"/>
    </edge>
    <edge id=":42444810_4" function="internal">
        <lane id=":42444810_4_0" index="0" speed="20.83" length="5.00" shape="1558.48,3216.02 1559.77,3215.54 1560.90,3215.59 1561.87,3216.17 1562.68,3217.27"/>
    </edge>
    <edge id=":42444812_0" function="internal">
        <lane id=":42444812_0_0" index="0" speed="20.83" length="5.00" shape="1711.23,3130.02 1712.05,3131.12 1713.02,3131.70 1714.15,3131.75 1715.43,3131.28"/>
    </edge>
    <edge id=":42444812_1" function="internal">
        <lane id=":42444812_1_0" index="0" speed="27.78" length="6.20" shape="1711.23,3130.02 1714.18,3135.48"/>
        <lane id=":42444812_1_1" index="1" speed="27.78" length="6.20" shape="1708.33,3131.59 1711.27,3137.05"/>
    </edge>
    <edge id=":42444812_3" function="internal">
        <lane id=":42444812_3_0" index="0" speed="13.89" length="9.50" shape="1707.07,3135.79 1715.43,3131.28"/>
    </edge>
    <edge id=":42444812_4" function="internal">
        <lane id=":42444812_4_0" index="0" speed="20.83" length="5.00" shape="1707.07,3135.79 1708.36,3135.32 1709.49,3135.37 1710.46,3135.95 1711.27,3137.05"/>
    </edge>
    <edge id=":42444814_0" function="internal">
        <lane id=":42444814_0_0" index="0" speed="27.78" length="6.20" shape="1836.72,3069.32 1833.77,3063.86"/>
        <lane id=":42444814_0_1" index="1" speed="27.78" length="6.20" shape="1839.62,3067.75 1836.68,3062.30"/>
    </edge>
    <edge id=":42444814_2" function="internal">
        <lane id=":42444814_2_0" index="0" speed="20.83" length="5.00" shape="1839.62,3067.75 1839.15,3066.47 1839.20,3065.34 1839.78,3064.37 1840.88,3063.55"/>
    </edge>
    <edge id=":42444814_3" function="internal">
        <lane id=":42444814_3_0" index="0" speed="20.83" length="5.00" shape="1832.52,3068.06 1833.62,3067.25 1834.20,3066.28 1834.25,3065.15 1833.77,3063.86"/>
    </edge>
    <edge id=":42444814_4" function="internal">
        <lane id=":42444814_4_0" index="0" speed="13.89" length="9.50" shape="1832.52,3068.06 1840.88,3063.55"/>
    </edge>
    <edge id=":42444817_0" function="internal">
        <lane id=":42444817_0_0" index="0" speed="13.89" length="0.10" shape="1972.86,2992.30 1972.86,2992.30"/>
    </edge>
    <edge id=":42444820_0" function="internal">
        <lane id=":42444820_0_0" index="0" speed="13.89" length="0.10" shape="2364.01,2781.15 2364.01,2781.15"/>
    </edge>
    <edge id=":42445230_0" function="internal">
        <lane id=":42445230_0_0" index="0" speed="27.78" length="0.10" shape="968.70,1757.63 968.68,1757.59"/>