<?xml version="1.0" encoding="UTF-8"?>

<!-- generated on Thu Jun  4 03:25:25 2015 by SUMO polyconvert Version 0.23.0
<?xml version="1.0" encoding="UTF-8"?>

<configuration xmlns:xsi="http://www.w3.org/2001/XMLSchema-instance" xsi:noNamespaceSchemaLocation="http://sumo.dlr.de/xsd/polyconvertConfiguration.xsd">

    <input>
        <net-file value="Manhattan.net.xml"/>
        <osm-files value="Manhattan.osm"/>
        <type-file value="typemap.xml"/>
    </input>

    <output>
        <output-file value="Manhattan.poly.xml"/>
    </output>

</configuration>
-->

<additional xmlns:xsi="http://www.w3.org/2001/XMLSchema-instance" xsi:noNamespaceSchemaLocation="http://sumo.dlr.de/xsd/additional_file.xsd">
    <location netOffset="-586447.10,-4512024.30" convBoundary="0.00,-0.00,2834.97,4916.43" origBoundary="-73.975905,40.754634,-73.941625,40.798616" projParameter="+proj=utm +zone=18 +ellps=WGS84 +datum=WGS84 +units=m +no_defs"/>

    <poly id="196117041" type="unknown" color="51,128,255" fill="0" layer="-1.00" shape="2834.97,4916.42 2793.33,4839.89 2682.62,4634.07 2643.94,4562.35 2605.62,4491.18 2567.56,4420.73 2529.57,4350.32 2491.53,4279.67 2450.91,4204.83 2410.62,4128.87 2372.06,4057.81 2334.83,3989.02 2296.57,3918.00 2258.92,3848.09 2221.05,3778.16 2182.71,3706.89 2145.20,3637.56 2107.43,3566.11 2067.27,3491.79 2024.94,3414.42 1988.23,3346.23 1950.46,3276.11 1912.07,3205.20 1874.58,3135.87 1836.70,3065.81 1798.96,2995.88 1761.08,2925.00 1723.34,2855.61 1682.89,2781.11 1641.46,2703.45 1603.32,2632.94 1564.99,2561.95 1526.77,2490.98 1488.19,2419.42 1450.00,2348.79 1406.73,2272.71 1366.66,2194.25 1329.89,2125.96 1291.88,2055.44 1253.64,1984.48 1214.76,1912.14 1176.49,1841.68 1141.02,1776.51 1135.42,1766.22 1129.84,1755.72 1094.56,1689.40 1057.54,1620.79 1019.04,1549.46 986.56,1489.44 981.50,1480.08 977.79,1473.16 943.66,1409.52 905.93,1339.71 868.29,1270.10"/>
    <poly id="226015238" type="unknown" color="51,128,255" fill="0" layer="-1.00" shape="2326.36,2711.22 2125.05,2819.88 1935.14,2922.37 1798.96,2995.88 1673.53,3063.57 1652.36,3075.01 1524.73,3143.90 1388.63,3217.37"/>
    <poly id="266915716" type="building" color="255,230,230" fill="1" layer="2.00" shape="1865.20,2969.43 1853.39,2975.77 1856.41,2981.40 1858.35,2980.35 1859.35,2982.21 1858.88,2982.46 1867.94,2999.36 1876.63,2994.71 1867.57,2977.80 1867.01,2978.09 1866.02,2976.25 1868.22,2975.07 1865.20,2969.43"/>
    <poly id="266915723" type="building" color="255,230,230" fill="1" layer="2.00" shape="1877.11,2975.46 1875.76,2976.19 1874.80,2974.40 1876.16,2973.67 1871.95,2965.82 1865.20,2969.43 1868.22,2975.07 1869.41,2977.29 1870.67,2976.62 1871.63,2978.40 1870.37,2979.08 1873.39,2984.72 1874.94,2985.47 1878.90,2992.87 1884.02,2990.12 1880.06,2982.72 1880.23,2981.27 1877.11,2975.46"/>
    <poly id="266915724" type="building" color="255,230,230" fill="1" layer="2.00" shape="1884.97,3022.39 1883.39,3021.41 1874.59,3004.98 1868.77,3008.11 1871.28,3012.79 1872.45,3013.04 1878.37,3024.10 1878.51,3025.85 1880.77,3030.05 1887.22,3026.60 1884.97,3022.39"/>
    <poly id="266915725" type="building" color="255,230,230" fill="1" layer="2.00" shape="1878.59,2962.27 1871.95,2965.82 1876.16,2973.67 1877.36,2973.03 1878.32,2974.82 1877.11,2975.46 1880.23,2981.27 1881.66,2981.86 1885.63,2989.26 1890.69,2986.55 1886.72,2979.15 1886.87,2977.72 1878.94,2962.91 1878.59,2962.27"/>
    <poly id="266915726" type="building" color="255,230,230" fill="1" layer="2.00" shape="1887.28,3007.06 1886.02,3007.73 1882.32,3000.84 1876.72,3003.83 1880.42,3010.74 1879.10,3011.44 1884.97,3022.39 1887.22,3026.60 1895.40,3022.21 1894.94,3021.36 1887.28,3007.06"/>
    <poly id="266915727" type="building" color="255,230,230" fill="1" layer="2.00" shape="1899.31,2952.00 1878.94,2962.91 1886.87,2977.72 1891.40,2986.17 1904.15,2979.34 1901.96,2975.25 1909.58,2971.16 1906.29,2965.02 1899.31,2952.00"/>
    <poly id="266915765" type="building" color="255,230,230" fill="1" layer="2.00" shape="1827.98,3025.20 1842.53,3052.36 1858.00,3044.07 1851.82,3032.54 1856.84,3029.84 1863.03,3041.37 1878.50,3033.09 1871.56,3020.14 1868.93,3021.55 1862.69,3009.94 1852.21,3015.55 1854.60,3020.01 1853.82,3022.19 1846.70,3026.00 1844.46,3025.45 1840.68,3018.39 1827.98,3025.20"/>
    <poly id="266915771" type="building" color="255,230,230" fill="1" layer="2.00" shape="1867.94,3003.78 1860.02,2989.00 1856.06,2991.13 1850.05,2979.91 1841.61,2984.43 1841.10,2983.47 1813.53,2998.25 1827.98,3025.20 1840.68,3018.39 1867.94,3003.78"/>
    <poly id="266915952" type="building" color="255,230,230" fill="1" layer="2.00" shape="1886.32,3107.11 1882.54,3099.94 1878.15,3102.25 1877.37,3100.78 1881.76,3098.46 1877.58,3090.52 1866.15,3096.53 1874.90,3113.13 1882.24,3109.26 1886.32,3107.11"/>
    <poly id="266915953" type="building" color="255,230,230" fill="1" layer="2.00" shape="1863.16,3062.23 1856.75,3065.61 1860.06,3071.90 1860.79,3071.52 1863.53,3076.74 1863.17,3077.81 1864.67,3080.64 1865.70,3080.83 1868.03,3085.25 1872.91,3082.69 1870.01,3077.20 1871.05,3076.35 1869.92,3074.20 1868.70,3074.19 1865.92,3068.92 1866.39,3068.37 1863.16,3062.23"/>
    <poly id="266915954" type="building" color="255,230,230" fill="1" layer="2.00" shape="1901.77,3101.70 1898.84,3103.24 1897.20,3100.14 1895.82,3098.86 1892.98,3093.47 1896.46,3091.63 1896.15,3091.04 1893.57,3086.16 1893.05,3085.16 1879.70,3092.20 1883.13,3098.70 1884.38,3098.04 1884.65,3097.05 1886.19,3096.24 1889.72,3102.94 1890.14,3104.15 1891.65,3107.03 1888.78,3108.55 1892.74,3116.09 1905.75,3109.24 1902.30,3102.72 1901.77,3101.70"/>
    <poly id="266915955" type="building" color="255,230,230" fill="1" layer="2.00" shape="1883.42,3051.14 1875.69,3055.21 1876.23,3056.23 1870.21,3059.40 1869.67,3058.38 1862.99,3061.90 1863.16,3062.23 1866.39,3068.37 1867.50,3070.46 1872.74,3067.70 1875.94,3073.77 1871.00,3076.26 1875.33,3084.49 1895.41,3073.91 1891.60,3066.67 1886.30,3069.46 1885.45,3067.83 1883.52,3068.85 1882.48,3066.87 1884.40,3065.85 1883.22,3063.61 1888.51,3060.82 1883.58,3051.47 1883.42,3051.14"/>
    <poly id="266915960" type="building" color="255,230,230" fill="1" layer="2.00" shape="1903.62,3040.91 1883.58,3051.47 1888.51,3060.82 1888.60,3060.99 1897.64,3056.22 1904.45,3069.16 1912.95,3064.67 1906.68,3052.79 1909.18,3051.47 1903.62,3040.91"/>
    <poly id="266915975" type="building" color="255,230,230" fill="1" layer="2.00" shape="1861.22,3074.10 1860.33,3074.57 1859.17,3072.37 1860.06,3071.90 1856.75,3065.61 1851.35,3068.45 1864.99,3094.33 1870.39,3091.49 1868.92,3088.71 1868.41,3088.98 1867.48,3087.22 1867.80,3086.59 1864.67,3080.64 1863.17,3077.81 1861.22,3074.10"/>
    <poly id="266915978" type="building" color="255,230,230" fill="1" layer="2.00" shape="1888.40,3107.82 1882.99,3110.68 1882.24,3109.26 1874.90,3113.13 1880.00,3122.81 1892.74,3116.09 1888.78,3108.55 1888.40,3107.82"/>
    <poly id="266925398" type="building" color="255,230,230" fill="1" layer="2.00" shape="1865.04,3242.00 1854.17,3247.88 1857.89,3254.73 1853.49,3257.11 1849.78,3250.27 1838.97,3256.14 1843.17,3263.88 1844.52,3263.16 1845.48,3263.86 1853.01,3277.73 1862.05,3272.82 1859.40,3267.92 1863.55,3265.66 1866.22,3270.56 1875.28,3265.65 1867.96,3252.14 1867.90,3250.76 1869.37,3249.96 1865.53,3242.89 1865.04,3242.00"/>
    <poly id="266925401" type="building" color="255,230,230" fill="1" layer="2.00" shape="1868.77,3241.13 1865.53,3242.89 1869.37,3249.96 1873.58,3257.74 1876.82,3255.98 1876.14,3254.73 1868.77,3241.13"/>
    <poly id="266925403" type="building" color="255,230,230" fill="1" layer="2.00" shape="1872.39,3239.17 1868.77,3241.13 1876.14,3254.73 1879.76,3252.76 1872.39,3239.17"/>
    <poly id="266925405" type="building" color="255,230,230" fill="1" layer="2.00" shape="1878.92,3235.62 1872.39,3239.17 1879.76,3252.76 1881.96,3256.82 1888.50,3253.28 1886.47,3249.55 1879.19,3236.11 1878.92,3235.62"/>
    <poly id="266925450" type="building" color="255,230,230" fill="1" layer="2.00" shape="1827.91,3296.53 1825.21,3291.53 1823.59,3292.39 1820.45,3286.61 1819.33,3287.21 1817.47,3283.78 1827.42,3278.38 1832.02,3286.88 1830.85,3287.98 1834.02,3293.83 1847.90,3286.31 1840.34,3272.37 1843.06,3270.89 1835.66,3257.22 1797.57,3277.88 1812.29,3305.02 1825.14,3298.04 1827.91,3296.53"/>
    <poly id="266925453" type="building" color="255,230,230" fill="1" layer="2.00" shape="1883.24,3233.92 1879.19,3236.11 1886.47,3249.55 1890.52,3247.35 1883.24,3233.92"/>
    <poly id="266925678" type="amenity" color="237,199,199" fill="1" layer="2.00" shape="1701.12,3273.01 1730.20,3257.23 1729.82,3256.54 1733.04,3254.79 1733.59,3253.25 1731.80,3249.95 1729.42,3249.35 1733.57,3247.10 1723.38,3228.32 1687.45,3247.82 1687.64,3248.18 1697.22,3265.81 1701.12,3273.01"/>
    <poly id="266925678#1" type="building" color="255,230,230" fill="1" layer="2.00" shape="1701.12,3273.01 1730.20,3257.23 1729.82,3256.54 1733.04,3254.79 1733.59,3253.25 1731.80,3249.95 1729.42,3249.35 1733.57,3247.10 1723.38,3228.32 1687.45,3247.82 1687.64,3248.18 1697.22,3265.81 1701.12,3273.01"/>
    <poly id="266925679" type="building" color="255,230,230" fill="1" layer="2.00" shape="1784.16,3195.30 1779.22,3197.97 1781.85,3202.83 1784.29,3207.33 1786.70,3211.79 1787.35,3213.00 1792.29,3210.33 1784.16,3195.30"/>
    <poly id="266925680" type="building" color="255,230,230" fill="1" layer="2.00" shape="1788.50,3192.95 1784.16,3195.30 1792.29,3210.33 1796.62,3207.98 1788.50,3192.95"/>
    <poly id="266925681" type="building" color="255,230,230" fill="1" layer="2.00" shape="1792.44,3190.82 1788.50,3192.95 1796.62,3207.98 1800.57,3205.84 1792.44,3190.82"/>
    <poly id="266925682" type="building" color="255,230,230" fill="1" layer="2.00" shape="1787.35,3162.16 1785.33,3163.25 1777.29,3148.39 1767.25,3153.81 1775.29,3168.68 1773.30,3169.75 1777.58,3177.68 1791.63,3170.10 1787.35,3162.16"/>
    <poly id="266925683" type="building" color="255,230,230" fill="1" layer="2.00" shape="1800.61,3186.40 1792.44,3190.82 1800.57,3205.84 1801.70,3207.94 1807.04,3205.07 1807.80,3206.48 1810.64,3204.94 1801.49,3188.02 1800.61,3186.40"/>
    <poly id="266925684" type="building" color="255,230,230" fill="1" layer="2.00" shape="1786.65,3144.17 1779.67,3147.94 1787.35,3162.16 1791.63,3170.10 1798.61,3166.33 1794.16,3158.08 1792.72,3155.41 1786.65,3144.17"/>
    <poly id="266925685" type="building" color="255,230,230" fill="1" layer="2.00" shape="1769.63,3112.65 1762.88,3116.30 1771.48,3132.23 1778.25,3128.58 1777.51,3127.23 1773.52,3119.83 1769.63,3112.65"/>
    <poly id="266925686" type="building" color="255,230,230" fill="1" layer="2.00" shape="1805.45,3185.87 1801.49,3188.02 1810.64,3204.94 1810.72,3205.10 1814.69,3202.95 1813.41,3200.59 1805.45,3185.87"/>
    <poly id="266925687" type="building" color="255,230,230" fill="1" layer="2.00" shape="1799.93,3156.19 1798.66,3156.05 1797.15,3153.25 1797.58,3152.13 1795.49,3148.27 1794.64,3148.73 1790.92,3141.86 1786.65,3144.17 1792.72,3155.41 1794.84,3154.27 1794.16,3158.08 1798.61,3166.33 1803.87,3163.49 1799.93,3156.19"/>
    <poly id="266925688" type="building" color="255,230,230" fill="1" layer="2.00" shape="1784.29,3207.33 1781.85,3202.83 1780.58,3203.52 1763.01,3213.02 1765.44,3217.53 1781.54,3208.81 1784.29,3207.33"/>
    <poly id="266925689" type="building" color="255,230,230" fill="1" layer="2.00" shape="1781.54,3208.81 1765.44,3217.53 1767.86,3221.98 1783.96,3213.27 1781.54,3208.81"/>
    <poly id="266925690" type="building" color="255,230,230" fill="1" layer="2.00" shape="1786.70,3211.79 1783.96,3213.27 1767.86,3221.98 1770.29,3226.49 1789.13,3216.30 1787.35,3213.00 1786.70,3211.79"/>
    <poly id="266925691" type="building" color="255,230,230" fill="1" layer="2.00" shape="1791.60,3220.86 1789.13,3216.30 1770.29,3226.49 1772.76,3231.05 1784.05,3224.94 1791.60,3220.86"/>
    <poly id="266925692" type="building" color="255,230,230" fill="1" layer="2.00" shape="1797.37,3116.42 1791.36,3119.67 1790.54,3118.16 1791.21,3117.80 1789.07,3113.84 1788.44,3114.18 1787.44,3112.34 1793.42,3109.11 1792.99,3108.31 1789.53,3101.90 1769.63,3112.65 1773.52,3119.83 1779.37,3116.67 1780.21,3118.22 1780.15,3119.43 1781.66,3122.23 1782.52,3122.49 1782.88,3123.19 1782.60,3124.49 1777.51,3127.23 1778.25,3128.58 1781.64,3134.99 1781.89,3135.35 1801.79,3124.61 1798.03,3117.65 1797.37,3116.42"/>
    <poly id="266925693" type="building" color="255,230,230" fill="1" layer="2.00" shape="1809.56,3183.66 1805.45,3185.87 1813.41,3200.59 1817.52,3198.36 1809.56,3183.66"/>
    <poly id="266925694" type="building" color="255,230,230" fill="1" layer="2.00" shape="1805.18,3153.27 1804.01,3152.91 1802.69,3150.49 1803.09,3149.43 1799.05,3141.94 1793.65,3144.85 1795.49,3148.27 1797.58,3152.13 1798.57,3151.59 1799.77,3153.80 1798.89,3154.27 1799.93,3156.19 1803.87,3163.49 1809.16,3160.64 1805.18,3153.27"/>
    <poly id="266925695" type="building" color="255,230,230" fill="1" layer="2.00" shape="1832.71,3229.74 1831.43,3229.28 1830.08,3226.77 1830.45,3225.55 1827.49,3220.09 1826.14,3219.49 1823.00,3213.68 1817.91,3216.44 1821.05,3222.24 1820.72,3223.76 1823.67,3229.22 1824.98,3229.53 1826.35,3232.04 1825.93,3233.40 1829.81,3240.55 1836.58,3236.89 1836.31,3236.40 1832.71,3229.74"/>
    <poly id="266925696" type="building" color="255,230,230" fill="1" layer="2.00" shape="1813.53,3181.51 1809.56,3183.66 1817.52,3198.36 1821.50,3196.22 1813.53,3181.51"/>
    <poly id="266925697" type="building" color="255,230,230" fill="1" layer="2.00" shape="1815.90,3147.47 1815.02,3147.46 1813.54,3144.73 1813.99,3143.94 1809.78,3136.14 1799.05,3141.94 1803.09,3149.43 1804.22,3149.66 1805.54,3152.09 1805.18,3153.27 1809.16,3160.64 1819.88,3154.84 1815.90,3147.47"/>
    <poly id="266925698" type="building" color="255,230,230" fill="1" layer="2.00" shape="1839.47,3226.08 1838.14,3225.66 1836.55,3222.74 1837.21,3221.90 1834.73,3217.33 1834.25,3216.44 1832.93,3216.04 1829.70,3210.06 1824.69,3212.77 1827.92,3218.76 1827.49,3220.09 1830.45,3225.55 1832.71,3229.74 1836.31,3236.40 1843.07,3232.74 1842.40,3231.51 1839.47,3226.08"/>
    <poly id="266925699" type="building" color="255,230,230" fill="1" layer="2.00" shape="1817.52,3179.35 1813.53,3181.51 1821.50,3196.22 1825.48,3194.06 1817.52,3179.35"/>
    <poly id="266925700" type="building" color="255,230,230" fill="1" layer="2.00" shape="1803.68,3112.10 1802.15,3111.67 1801.18,3109.87 1802.18,3109.33 1801.30,3107.68 1800.64,3106.48 1799.59,3107.04 1798.63,3105.25 1799.68,3104.69 1796.22,3098.29 1789.53,3101.90 1792.99,3108.31 1794.26,3107.61 1795.20,3109.35 1793.93,3110.04 1795.48,3112.92 1796.76,3112.24 1797.74,3114.05 1796.98,3115.70 1797.37,3116.42 1798.03,3117.65 1799.44,3118.00 1802.42,3123.52 1807.43,3120.81 1804.45,3115.29 1804.68,3113.95 1804.30,3113.25 1803.68,3112.10"/>
    <poly id="266925701" type="building" color="255,230,230" fill="1" layer="2.00" shape="1821.88,3176.99 1817.52,3179.35 1825.48,3194.06 1829.84,3191.70 1828.85,3189.88 1821.88,3176.99"/>
    <poly id="266925702" type="building" color="255,230,230" fill="1" layer="2.00" shape="1819.96,3141.77 1818.75,3142.42 1817.91,3140.88 1819.13,3140.23 1815.31,3133.15 1809.78,3136.14 1813.99,3143.94 1815.14,3143.87 1816.61,3146.59 1815.90,3147.47 1819.88,3154.84 1825.40,3151.86 1820.77,3143.28 1819.96,3141.77"/>
    <poly id="266925703" type="building" color="255,230,230" fill="1" layer="2.00" shape="1849.08,3211.97 1845.85,3213.72 1843.71,3209.78 1840.10,3211.73 1841.22,3213.82 1848.36,3227.02 1855.21,3223.31 1849.08,3211.97"/>
    <poly id="266925704" type="building" color="255,230,230" fill="1" layer="2.00" shape="1808.10,3104.06 1806.62,3104.86 1805.71,3103.16 1807.19,3102.36 1803.01,3094.63 1796.22,3098.29 1799.68,3104.69 1800.41,3106.03 1801.90,3105.22 1802.80,3106.88 1801.30,3107.68 1802.18,3109.33 1803.68,3112.10 1804.30,3113.25 1805.54,3113.70 1809.37,3120.80 1814.62,3117.97 1810.78,3110.87 1811.08,3109.58 1808.10,3104.06"/>
    <poly id="266925705" type="building" color="255,230,230" fill="1" layer="2.00" shape="1826.27,3174.62 1821.88,3176.99 1828.85,3189.88 1830.11,3189.21 1831.00,3190.84 1831.42,3191.29 1831.99,3191.53 1832.31,3191.57 1832.92,3191.44 1833.19,3191.29 1833.62,3190.85 1833.76,3190.57 1833.87,3189.96 1833.74,3189.36 1832.85,3187.72 1833.24,3187.50 1826.48,3175.00 1826.27,3174.62"/>
    <poly id="266925706" type="building" color="255,230,230" fill="1" layer="2.00" shape="1825.40,3151.86 1836.35,3145.94 1831.72,3137.37 1829.96,3138.32 1821.50,3122.66 1813.77,3126.83 1822.23,3142.50 1820.77,3143.28 1825.40,3151.86"/>
    <poly id="266925707" type="building" color="255,230,230" fill="1" layer="2.00" shape="1850.37,3205.05 1846.47,3207.17 1849.08,3211.97 1855.21,3223.31 1855.99,3224.75 1859.89,3222.64 1851.89,3207.86 1850.37,3205.05"/>
    <poly id="266925710" type="building" color="255,230,230" fill="1" layer="2.00" shape="1814.70,3100.49 1813.34,3101.23 1812.42,3099.52 1813.78,3098.80 1809.61,3091.06 1803.01,3094.63 1807.19,3102.36 1808.68,3101.55 1809.59,3103.25 1808.10,3104.06 1811.08,3109.58 1812.32,3110.04 1816.16,3117.13 1821.29,3114.36 1817.45,3107.27 1817.73,3106.11 1814.70,3100.49"/>
    <poly id="266925711" type="building" color="255,230,230" fill="1" layer="2.00" shape="1831.06,3172.52 1826.48,3175.00 1833.24,3187.50 1833.39,3187.78 1837.98,3185.31 1831.06,3172.52"/>
    <poly id="266925712" type="building" color="255,230,230" fill="1" layer="2.00" shape="1855.94,3205.67 1851.89,3207.86 1859.89,3222.64 1863.94,3220.44 1855.94,3205.67"/>
    <poly id="266925713" type="building" color="255,230,230" fill="1" layer="2.00" shape="1815.70,3087.76 1809.61,3091.06 1813.78,3098.80 1814.70,3100.49 1817.73,3106.11 1822.09,3114.17 1827.11,3111.47 1818.51,3095.55 1819.60,3094.97 1815.70,3087.76"/>
    <poly id="266925714" type="building" color="255,230,230" fill="1" layer="2.00" shape="1835.83,3169.94 1831.06,3172.52 1837.98,3185.31 1838.22,3185.75 1842.99,3183.18 1835.83,3169.94"/>
    <poly id="266925715" type="building" color="255,230,230" fill="1" layer="2.00" shape="1858.31,3200.56 1854.34,3202.71 1855.94,3205.67 1863.94,3220.44 1867.90,3218.30 1859.91,3203.52 1858.31,3200.56"/>
    <poly id="266925720" type="building" color="255,230,230" fill="1" layer="2.00" shape="1823.10,3083.76 1815.70,3087.76 1819.60,3094.97 1820.71,3094.37 1821.94,3096.66 1820.83,3097.26 1822.44,3100.22 1823.55,3099.62 1824.56,3101.51 1824.13,3103.36 1825.10,3105.16 1826.59,3105.77 1829.08,3110.38 1834.66,3107.37 1832.17,3102.75 1832.47,3101.11 1831.53,3099.37 1829.92,3098.93 1828.77,3096.81 1829.84,3096.22 1828.29,3093.36 1827.22,3093.94 1825.93,3091.55 1827.00,3090.97 1825.69,3088.57 1823.10,3083.76"/>
    <poly id="266925722" type="building" color="255,230,230" fill="1" layer="2.00" shape="1845.24,3164.84 1840.57,3167.37 1847.64,3180.45 1852.31,3177.92 1845.24,3164.84"/>
    <poly id="266925723" type="building" color="255,230,230" fill="1" layer="2.00" shape="1867.98,3199.15 1859.91,3203.52 1867.90,3218.30 1875.97,3213.94 1870.15,3203.18 1867.98,3199.15"/>
    <poly id="266925724" type="building" color="255,230,230" fill="1" layer="2.00" shape="1852.31,3177.92 1856.88,3175.44 1849.81,3162.38 1845.24,3164.84 1852.31,3177.92"/>
    <poly id="266925725" type="building" color="255,230,230" fill="1" layer="2.00" shape="1874.70,3200.72 1870.15,3203.18 1875.97,3213.94 1876.23,3214.41 1880.76,3211.94 1874.70,3200.72"/>
    <poly id="266925726" type="building" color="255,230,230" fill="1" layer="2.00" shape="1847.74,3110.70 1845.42,3106.42 1838.35,3110.24 1825.13,3117.37 1827.44,3121.65 1846.81,3111.20 1847.74,3110.70"/>
    <poly id="266925727" type="building" color="255,230,230" fill="1" layer="2.00" shape="1849.36,3115.93 1846.81,3111.20 1827.44,3121.65 1824.20,3123.41 1826.75,3128.14 1830.88,3125.91 1849.36,3115.93"/>
    <poly id="266925728" type="building" color="255,230,230" fill="1" layer="2.00" shape="1870.62,3155.59 1857.50,3162.68 1860.30,3167.86 1873.42,3160.77 1870.62,3155.59"/>
    <poly id="266925729" type="building" color="255,230,230" fill="1" layer="2.00" shape="1873.42,3160.77 1860.30,3167.86 1862.91,3172.69 1876.04,3165.60 1873.42,3160.77"/>
    <poly id="266925730" type="building" color="255,230,230" fill="1" layer="2.00" shape="1876.04,3165.60 1862.91,3172.69 1865.76,3177.95 1878.88,3170.86 1876.04,3165.60"/>
    <poly id="266925731" type="building" color="255,230,230" fill="1" layer="2.00" shape="1882.18,3176.95 1878.88,3170.86 1865.76,3177.95 1864.29,3178.76 1867.59,3184.85 1869.42,3183.86 1882.18,3176.95"/>
    <poly id="266925732" type="building" color="255,230,230" fill="1" layer="2.00" shape="1869.42,3183.86 1872.61,3189.75 1885.37,3182.84 1882.18,3176.95 1869.42,3183.86"/>
    <poly id="266925744" type="building" color="255,230,230" fill="1" layer="2.00" shape="1666.72,3259.53 1653.05,3266.95 1662.36,3284.11 1667.02,3292.70 1680.70,3285.28 1676.96,3278.39 1674.44,3273.74 1666.72,3259.53"/>
    <poly id="266925746" type="building" color="255,230,230" fill="1" layer="2.00" shape="1677.04,3272.34 1679.55,3276.98 1682.39,3275.43 1672.16,3256.58 1666.72,3259.53 1674.44,3273.74 1677.04,3272.34"/>
    <poly id="266925747" type="building" color="255,230,230" fill="1" layer="2.00" shape="1677.15,3253.88 1672.16,3256.58 1682.39,3275.43 1682.68,3275.97 1684.74,3274.86 1682.04,3269.87 1684.97,3268.27 1677.15,3253.88"/>
    <poly id="266925749" type="building" color="255,230,230" fill="1" layer="2.00" shape="1682.34,3251.06 1677.15,3253.88 1684.97,3268.27 1690.15,3265.46 1682.34,3251.06"/>
    <poly id="266925750" type="building" color="255,230,230" fill="1" layer="2.00" shape="1687.64,3248.18 1682.34,3251.06 1690.15,3265.46 1691.90,3268.70 1697.22,3265.81 1687.64,3248.18"/>
    <poly id="266925751" type="building" color="255,230,230" fill="1" layer="2.00" shape="1743.31,3176.80 1751.42,3191.82 1774.30,3179.46 1767.12,3166.16 1764.64,3167.50 1763.71,3165.78 1760.37,3167.58 1762.76,3172.00 1753.93,3176.76 1751.55,3172.35 1743.31,3176.80"/>
    <poly id="266925752" type="building" color="255,230,230" fill="1" layer="2.00" shape="1840.57,3167.37 1835.83,3169.94 1842.99,3183.18 1845.82,3188.42 1846.14,3188.25 1848.44,3192.48 1850.89,3191.15 1849.48,3188.55 1851.15,3187.65 1849.33,3184.30 1847.73,3185.16 1845.74,3181.47 1847.64,3180.45 1840.57,3167.37"/>
    <poly id="266925753" type="building" color="255,230,230" fill="1" layer="2.00" shape="1722.92,3297.52 1750.99,3282.29 1751.52,3281.35 1746.05,3271.29 1745.08,3270.97 1742.96,3272.14 1741.57,3269.57 1743.50,3268.52 1743.91,3267.33 1738.52,3257.41 1737.35,3257.09 1722.13,3265.34 1723.63,3268.09 1713.66,3273.50 1721.03,3287.10 1718.12,3288.67 1722.92,3297.52"/>
    <poly id="266925754" type="building" color="255,230,230" fill="1" layer="2.00" shape="1889.34,3207.76 1896.70,3203.77 1897.12,3203.19 1897.29,3202.48 1897.17,3201.78 1887.98,3184.80 1887.77,3184.57 1887.50,3184.36 1886.88,3184.16 1886.22,3184.20 1885.91,3184.32 1870.56,3192.62 1873.03,3197.20 1882.56,3192.04 1886.55,3199.43 1886.31,3201.15 1889.16,3206.41 1888.74,3206.64 1889.16,3207.41 1889.34,3207.76"/>
    <poly id="266925755" type="building" color="255,230,230" fill="1" layer="2.00" shape="1753.26,3171.43 1751.71,3168.53 1762.16,3162.90 1754.35,3148.45 1747.58,3152.10 1745.28,3152.28 1742.61,3147.33 1741.30,3148.04 1740.59,3144.59 1755.22,3136.68 1762.78,3150.68 1771.65,3145.89 1765.16,3133.88 1765.57,3131.67 1767.11,3130.85 1760.07,3117.82 1722.43,3138.14 1743.31,3176.80 1751.55,3172.35 1753.26,3171.43"/>
    <poly id="266925756" type="building" color="255,230,230" fill="1" layer="2.00" shape="1867.58,3149.98 1854.46,3157.07 1857.50,3162.68 1870.62,3155.59 1867.58,3149.98"/>
    <poly id="266925757" type="building" color="255,230,230" fill="1" layer="2.00" shape="1777.79,3198.35 1760.22,3207.87 1763.01,3213.02 1780.58,3203.52 1777.79,3198.35"/>
    <poly id="266925758" type="building" color="255,230,230" fill="1" layer="2.00" shape="1830.88,3125.91 1840.49,3143.71 1858.97,3133.72 1849.36,3115.93 1830.88,3125.91"/>
    <poly id="266925760" type="building" color="255,230,230" fill="1" layer="2.00" shape="1879.16,3198.30 1874.70,3200.72 1880.76,3211.94 1885.23,3209.53 1879.16,3198.30"/>
    <poly id="266925761" type="building" color="255,230,230" fill="1" layer="2.00" shape="1883.08,3196.18 1879.16,3198.30 1885.23,3209.53 1889.16,3207.41 1888.74,3206.64 1883.08,3196.18"/>
    <poly id="266925762" type="building" color="255,230,230" fill="1" layer="2.00" shape="1781.64,3134.99 1775.00,3138.59 1777.28,3142.80 1783.92,3139.21 1781.89,3135.35 1781.64,3134.99"/>
    <poly id="266925763" type="building" color="255,230,230" fill="1" layer="2.00" shape="1830.91,3079.55 1823.10,3083.76 1825.69,3088.57 1826.76,3088.80 1838.35,3110.24 1845.42,3106.42 1830.91,3079.55"/>
    <poly id="266925764" type="building" color="255,230,230" fill="1" layer="2.00" shape="1841.22,3213.82 1834.73,3217.33 1837.21,3221.90 1839.47,3226.08 1842.40,3231.51 1848.89,3228.00 1848.36,3227.02 1841.22,3213.82"/>
    <poly id="266926165" type="building" color="255,230,230" fill="1" layer="2.00" shape="1593.98,3206.68 1576.90,3215.91 1590.79,3241.60 1605.92,3233.42 1593.36,3210.18 1595.31,3209.13 1594.22,3207.10 1593.98,3206.68"/>
    <poly id="266926165#1" type="historic" color="128,255,128" fill="1" layer="2.00" shape="1593.98,3206.68 1576.90,3215.91 1590.79,3241.60 1605.92,3233.42 1593.36,3210.18 1595.31,3209.13 1594.22,3207.10 1593.98,3206.68"/>
    <poly id="266926166" type="amenity" color="237,199,199" fill="1" layer="2.00" shape="1479.31,3218.18 1474.87,3220.57 1472.60,3216.35 1458.10,3224.15 1435.28,3236.43 1433.91,3237.17 1422.86,3243.13 1427.92,3252.52 1425.22,3253.97 1427.18,3257.62 1428.87,3256.71 1429.49,3257.83 1433.07,3264.49 1431.38,3265.40 1433.22,3268.82 1435.92,3267.36 1436.72,3268.87 1476.76,3247.31 1477.43,3248.57 1491.57,3240.96 1490.78,3239.48 1479.31,3218.18"/>
    <poly id="266926166#1" type="building" color="255,230,230" fill="1" layer="2.00" shape="1479.31,3218.18 1474.87,3220.57 1472.60,3216.35 1458.10,3224.15 1435.28,3236.43 1433.91,3237.17 1422.86,3243.13 1427.92,3252.52 1425.22,3253.97 1427.18,3257.62 1428.87,3256.71 1429.49,3257.83 1433.07,3264.49 1431.38,3265.40 1433.22,3268.82 1435.92,3267.36 1436.72,3268.87 1476.76,3247.31 1477.43,3248.57 1491.57,3240.96 1490.78,3239.48 1479.31,3218.18"/>
    <poly id="266926169" type="building" color="255,230,230" fill="1" layer="2.00" shape="1475.55,3215.50 1476.29,3216.87 1478.08,3215.90 1479.31,3218.18 1490.78,3239.48 1502.18,3233.34 1488.74,3208.39 1481.87,3212.10 1477.98,3214.18 1475.55,3215.50"/>
    <poly id="266926171" type="building" color="255,230,230" fill="1" layer="2.00" shape="1477.91,3204.74 1478.62,3204.36 1481.86,3210.39 1488.03,3207.07 1473.95,3180.93 1467.08,3184.62 1477.91,3204.74"/>
    <poly id="266926173" type="building" color="255,230,230" fill="1" layer="2.00" shape="1511.86,3251.23 1505.22,3254.81 1518.50,3279.53 1520.32,3279.98 1523.72,3278.14 1524.06,3276.55 1518.99,3267.11 1520.07,3266.52 1511.86,3251.23"/>
    <poly id="266926184" type="building" color="255,230,230" fill="1" layer="2.00" shape="1518.85,3247.48 1511.86,3251.23 1520.07,3266.52 1524.23,3274.26 1531.22,3270.50 1518.85,3247.48"/>
    <poly id="266926199" type="building" color="255,230,230" fill="1" layer="2.00" shape="1610.30,3240.49 1604.94,3243.37 1615.67,3263.29 1621.03,3260.40 1611.70,3243.10 1610.30,3240.49"/>
    <poly id="266926202" type="building" color="255,230,230" fill="1" layer="2.00" shape="1616.51,3239.88 1614.63,3240.89 1614.90,3241.38 1611.70,3243.10 1621.03,3260.40 1626.10,3257.68 1616.51,3239.88"/>
    <poly id="266926205" type="building" color="255,230,230" fill="1" layer="2.00" shape="1623.72,3212.11 1619.35,3214.46 1614.45,3205.38 1617.77,3203.59 1618.41,3204.78 1619.45,3204.22 1614.96,3195.89 1594.22,3207.10 1595.31,3209.13 1598.11,3214.30 1602.65,3211.83 1606.21,3218.43 1603.77,3219.74 1608.55,3228.58 1627.18,3218.51 1624.53,3213.60 1623.72,3212.11"/>
    <poly id="266926209" type="building" color="255,230,230" fill="1" layer="2.00" shape="1623.18,3240.63 1620.54,3242.05 1618.73,3238.68 1616.51,3239.88 1626.10,3257.68 1630.95,3255.06 1623.18,3240.63"/>
    <poly id="266926211" type="building" color="255,230,230" fill="1" layer="2.00" shape="1628.24,3237.25 1622.91,3240.13 1623.18,3240.63 1630.95,3255.06 1636.28,3252.19 1628.24,3237.25"/>
    <poly id="266926214" type="building" color="255,230,230" fill="1" layer="2.00" shape="1621.80,3192.20 1614.96,3195.89 1619.45,3204.22 1623.72,3212.11 1624.53,3213.60 1631.36,3209.90 1629.58,3206.59 1621.98,3192.52 1621.80,3192.20"/>
    <poly id="266926220" type="building" color="255,230,230" fill="1" layer="2.00" shape="1631.71,3235.40 1628.24,3237.25 1636.28,3252.19 1639.74,3250.32 1631.71,3235.40"/>
    <poly id="266926223" type="building" color="255,230,230" fill="1" layer="2.00" shape="1627.37,3190.32 1626.06,3191.03 1625.76,3190.47 1621.98,3192.52 1629.58,3206.59 1634.68,3203.84 1627.37,3190.32"/>
    <poly id="266926226" type="building" color="255,230,230" fill="1" layer="2.00" shape="1635.35,3233.43 1631.71,3235.40 1639.74,3250.32 1643.38,3248.37 1635.35,3233.43"/>
    <poly id="266926229" type="building" color="255,230,230" fill="1" layer="2.00" shape="1634.51,3191.32 1631.95,3186.60 1631.33,3186.97 1630.22,3187.89 1628.94,3189.48 1627.37,3190.32 1634.68,3203.84 1639.78,3201.08 1634.51,3191.32"/>
    <poly id="266926234" type="building" color="255,230,230" fill="1" layer="2.00" shape="1639.21,3228.02 1633.96,3230.86 1635.35,3233.43 1643.38,3248.37 1648.64,3245.54 1639.21,3228.02"/>
    <poly id="266926235" type="building" color="255,230,230" fill="1" layer="2.00" shape="1637.41,3184.90 1635.98,3185.66 1633.96,3185.86 1633.26,3186.05 1631.95,3186.60 1634.51,3191.32 1639.78,3201.08 1644.72,3198.41 1637.41,3184.90"/>
    <poly id="266926239" type="building" color="255,230,230" fill="1" layer="2.00" shape="1644.36,3225.25 1639.21,3228.02 1648.64,3245.54 1653.79,3242.76 1644.36,3225.25"/>