<?xml version="1.0"?>
<!-- generated on 2015-06-05 06:11:44.454766 by $Id: randomTrips.py 18096 2015-03-17 09:50:59Z behrisch $
  options: -n Manhattan.net.xml -r Manhattan.rou.xml -e 52.0 -p 0.15 <doubleminus>trip-attributes=departLane="best" departSpeed="max" departPos="free" <doubleminus>intermediate 4 -l
-->
<trips>
    <trip id="0" depart="0.00" from="5672411#3" to="226015238#2" via="46240204#20 5671357#6 68674962#48 46240204#42" departLane="best" departSpeed="max" departPos="free"/>
    <trip id="1" depart="0.15" from="5672411#3" to="68674962#34" via="68668544#7 196117041#7 46240204#43 196117041#6" departLane="best" departSpeed="max" departPos="free"/>
    <trip id="2" depart="0.30" from="46240204#48" to="68674962#14" via="68674962#13 5671248#5 68674962#6 68674962#10" departLane="best" departSpeed="max" departPos="free"/>
    <trip id="3" depart="0.45" from="196117041#16" to="68674962#4" via="46240204#23 68674962#36 68674962#39 196117041#4" departLane="best" departSpeed="max" departPos="free"/>
    <trip id="4" depart="0.60" from="196117041#47" to="68674962#6" via="5671357#5 5671248#6 -5669802#4 68674962#27" departLane="best" departSpeed="max" departPos="free"/>
    <trip id="5" depart="0.75" from="68674962#45" to="68668544#5" via="-5669802#4 5672411#4 68674962#9 5671357#3" departLane="best" departSpeed="max" departPos="free"/>
    <trip id="6" depart="0.90" from="5671248#5" to="196117041#29" via="5672411#1 5669802#5 46240204#32 5672411#4" departLane="best" departSpeed="max" departPos="free"/>
    <trip id="7" depart="1.05" from="196117041#2" to="5671357#1" via="5671357#7 46240204#41 5671248#5 196117041#21" departLane="best" departSpeed="max" departPos="free"/>
    <trip id="8" depart="1.20" from="46240204#29" to="46240204#30" via="196117041#36 5672941#1 5671248#1 68674962#15" departLane="best" departSpeed="max" departPos="free"/>
    <trip id="9" depart="1.35" from="5671357#0" to="5671248#6" via="5672411#2 5672411#7 5671248#2 226015238#1" departLane="best" departSpeed="max" departPos="free"/>
    <trip id="10" depart="1.50" from="196117041#37" to="196117041#36" via="46240204#8 68674962#22 226015238#1 46240204#47" departLane="best" departSpeed="max" departPos="free"/>
    <trip id="11" depart="1.65" from="68674962#12" to="5672411#5" via="5671357#2 196117041#11 196117041#40 196117041#28" departLane="best" departSpeed="max" departPos="free"/>
    <trip id="12" depart="1.80" from="5671357#7" to="68674962#30" via="46240204#2 5671357#6 46240204#23 68668544#6" departLane="best" departSpeed="max" departPos="free"/>
    <trip id="13" depart="1.95" from="5672411#7" to="196117041#5" via="196117041#22 5671248#7 46240204#35 68674962#24" departLane="best" departSpeed="max" departPos="free"/>
    <trip id="14" depart="2.10" from="68674962#38" to="196117041#47" via="5672411#3 68674962#48 46240204#8 196117041#18" departLane="best" departSpeed="max" departPos="free"/>
    <trip id="15" depart="2.25" from="68674962#14" to="5671357#5" via="196117041#31 46240204#40 196117041#47 5671357#1" departLane="best" departSpeed="max" departPos="free"/>
    <trip id="16" depart="2.40" from="46240204#46" to="68668544#2" via="5672411#2 68668544#1 5671248#3 5671357#4" departLane="best" departSpeed="max" departPos="free"/>
    <trip id="17" depart="2.55" from="5671357#0" to="46240204#42" via="68674962#33 46240204#11 196117041#13 46240204#19" departLane="best" departSpeed="max" departPos="free"/>
    <trip id="18" depart="2.70" from="-5669802#6" to="46240204#14" via="5671357#6 68674962#39 226015238#3 68668544#5" departLane="best" departSpeed="max" departPos="free"/>
    <trip id="19" depart="2.85" from="68674962#10" to="-5669802#0" via="5672411#4 5672411#3 196117041#18 196117041#42" departLane="best" departSpeed="max" departPos="free"/>
    <trip id="20" depart="3.00" from="68674962#21" to="68674962#2" via="-5669802#5 46240204#31 5669802#5 68674962#41" departLane="best" departSpeed="max" departPos="free"/>
    <trip id="21" depart="3.15" from="68674962#41" to="-5669802#3" via="-5669802#3 -5669802#1 68674962#15 46240204#36" departLane="best" departSpeed="max" departPos="free"/>
    <trip id="22" depart="3.30" from="196117041#0" to="68674962#14" via="196117041#25 5672411#7 68668544#6 5671248#6" departLane="best" departSpeed="max" departPos="free"/>
    <trip id="23" depart="3.45" from="196117041#31" to="196117041#26" via="196117041#40 68668544#0 196117041#31 5671357#6" departLane="best" departSpeed="max" departPos="free"/>
    <trip id="24" depart="3.60" from="5672411#0" to="196117041#28" via="68674962#48 196117041#8 46240204#34 226015238#5" departLane="best" departSpeed="max" departPos="free"/>
    <trip id="25" depart="3.75" from="68674962#9" to="196117041#44" via="68668544#3 46240204#17 5671357#5 5672411#4" departLane="best" departSpeed="max" departPos="free"/>
    <trip id="26" depart="3.90" from="46240204#46" to="68668544#9" via="46240204#12 46240204#9 5672411#2 196117041#21" departLane="best" departSpeed="max" departPos="free"/>
    <trip id="27" depart="4.05" from="5671357#6" to="68674962#24" via="46240204#29 5671248#5 5671248#7 196117041#29" departLane="best" departSpeed="max" departPos="free"/>
    <trip id="28" depart="4.20" from="46240204#7" to="5669802#6" via="68674962#15 46240204#31 68674962#19 196117041#23" departLane="best" departSpeed="max" departPos="free"/>
    <trip id="29" depart="4.35" from="226015238#5" to="196117041#22" via="68674962#8 196117041#18 196117041#11 46240204#7" departLane="best" departSpeed="max" departPos="free"/>
    <trip id="30" depart="4.50" from="68674962#15" to="68674962#6" via="196117041#33 68674962#37 46240204#45 68674962#7" departLane="best" departSpeed="max" departPos="free"/>
    <trip id="31" depart="4.65" from="68668544#2" to="5671248#3" via="5672411#7 5669802#4 68674962#13 5671248#1" departLane="best" departSpeed="max" departPos="free"/>
    <trip id="32" depart="4.80" from="5672941#1" to="196117041#46" via="68674962#27 5669802#3 -5669802#5 196117041#10" departLane="best" departSpeed="max" departPos="free"/>
    <trip id="33" depart="4.95" from="46240204#26" to="5671248#3" via="68674962#31 5671248#7 46240204#3 68674962#48" departLane="best" departSpeed="max" departPos="free"/>
    <trip id="34" depart="5.10" from="5671248#6" to="46240204#36" via="226015238#1 68674962#44 68674962#35 68674962#5" departLane="best" departSpeed="max" departPos="free"/>
    <trip id="35" depart="5.25" from="46240204#12" to="5671357#3" via="46240204#39 46240204#35 5672411#2 196117041#8" departLane="best" departSpeed="max" departPos="free"/>
    <trip id="36" depart="5.40" from="68674962#20" to="196117041#16" via="5672411#3 68668544#0 46240204#34 196117041#35" departLane="best" departSpeed="max" departPos="free"/>
    <trip id="37" depart="5.55" from="68674962#39" to="196117041#33" via="226015238#5 46240204#43 46240204#33 196117041#46" departLane="best" departSpeed="max" departPos="free"/>
    <trip id="38" depart="5.70" from="68674962#4" to="-5669802#3" via="196117041#33 196117041#37 5671357#3 46240204#47" departLane="best" departSpeed="max" departPos="free"/>
    <trip id="39" depart="5.85" from="5672411#7" to="226015238#6" via="46240204#33 226015238#4 68668544#4 68674962#41" departLane="best" departSpeed="max" departPos="free"/>
    <trip id="40" depart="6.00" from="68674962#30" to="5672411#7" via="5671357#1 5672941#1 196117041#10 68674962#41" departLane="best" departSpeed="max" departPos="free"/>
    <trip id="41" depart="6.15" from="5671248#3" to="5671248#7" via="196117041#33 46240204#17 68674962#1 5669802#1" departLane="best" departSpeed="max" departPos="free"/>
    <trip id="42" depart="6.30" from="5669802#5" to="5671357#5" via="5669802#4 5671357#5 196117041#44 68668544#4" departLane="best" departSpeed="max" departPos="free"/>
    <trip id="43" depart="6.45" from="68674962#24" to="196117041#27" via="46240204#27 5671248#1 5672411#5 5671248#7" departLane="best" departSpeed="max" departPos="free"/>
    <trip id="44" depart="6.60" from="68674962#15" to="5671248#2" via="46240204#13 46240204#13 68668544#4 46240204#18" departLane="best" departSpeed="max" departPos="free"/>
    <trip id="45" depart="6.75" from="196117041#10" to="46240204#25" via="5669802#4 196117041#5 196117041#46 68674962#33" departLane="best" departSpeed="max" departPos="free"/>
    <trip id="46" depart="6.90" from="68674962#17" to="-5669802#0" via="5671357#5 196117041#25 5672411#2 196117041#33" departLane="best" departSpeed="max" departPos="free"/>
    <trip id="47" depart="7.05" from="68674962#24" to="5671248#8" via="46240204#46 5672411#5 196117041#16 46240204#28" departLane="best" departSpeed="max" departPos="free"/>
    <trip id="48" depart="7.20" from="46240204#9" to="46240204#22" via="46240204#48 5672411#2 196117041#24 5672411#5" departLane="best" departSpeed="max" departPos="free"/>
    <trip id="49" depart="7.35" from="46240204#19" to="46240204#4" via="5671357#1 5669802#3 68674962#14 46240204#20" departLane="best" departSpeed="max" departPos="free"/>
    <trip id="50" depart="7.50" from="5671357#5" to="68674962#12" via="68674962#30 46240204#16 -5669802#5 196117041#19" departLane="best" departSpeed="max" departPos="free"/>
    <trip id="51" depart="7.65" from="46240204#42" to="5671357#3" via="46240204#9 46240204#46 46240204#10 46240204#17" departLane="best" departSpeed="max" departPos="free"/>
    <trip id="52" depart="7.80" from="-5669802#4" to="196117041#45" via="196117041#40 196117041#27 196117041#6 5671248#4" departLane="best" departSpeed="max" departPos="free"/>
    <trip id="53" depart="7.95" from="196117041#12" to="68668544#9" via="68674962#18 196117041#8 68674962#15 196117041#4" departLane="best" departSpeed="max" departPos="free"/>
    <trip id="54" depart="8.10" from="196117041#27" to="5669802#1" via="68674962#9 5671248#5 5671248#1 46240204#35" departLane="best" departSpeed="max" departPos="free"/>
    <trip id="55" depart="8.25" from="68674962#4" to="68668544#0" via="46240204#16 196117041#6 5671248#1 46240204#22" departLane="best" departSpeed="max" departPos="free"/>
    <trip id="56" depart="8.40" from="46240204#43" to="68674962#48" via="196117041#18 68674962#34 -5669802#4 46240204#14" departLane="best" departSpeed="max" departPos="free"/>
    <trip id="57" depart="8.55" from="68674962#10" to="46240204#46" via="68674962#12 46240204#49 68674962#5 68674962#24" departLane="best" departSpeed="max" departPos="free"/>
    <trip id="58" depart="8.70" from="226015238#0" to="196117041#9" via="46240204#44 226015238#1 68674962#34 196117041#4" departLane="best" departSpeed="max" departPos="free"/>
    <trip id="59" depart="8.85" from="5671248#0" to="196117041#9" via="5671248#7 68674962#31 46240204#25 5672411#2" departLane="best" departSpeed="max" departPos="free"/>
    <trip id="60" depart="9.00" from="46240204#12" to="68668544#3" via="196117041#19 46240204#41 -5669802#1 68674962#26" departLane="best" departSpeed="max" departPos="free"/>
    <trip id="61" depart="9.15" from="196117041#38" to="196117041#4" via="68674962#13 196117041#12 5671248#7 46240204#26" departLane="best" departSpeed="max" departPos="free"/>
    <trip id="62" depart="9.30" from="68674962#4" to="-5669802#3" via="5671248#1 68674962#18 68674962#37 -5669802#3" departLane="best" departSpeed="max" departPos="free"/>
    <trip id="63" depart="9.45" from="196117041#27" to="5672411#1" via="5672411#7 196117041#1 196117041#19 196117041#25" departLane="best" departSpeed="max" departPos="free"/>
    <trip id="64" depart="9.60" from="-5669802#3" to="196117041#48" via="196117041#26 68668544#4 68674962#31 68674962#37" departLane="best" departSpeed="max" departPos="free"/>
    <trip id="65" depart="9.75" from="5671248#7" to="46240204#29" via="46240204#38 196117041#24 5669802#3 68674962#24" departLane="best" departSpeed="max" departPos="free"/>
    <trip id="66" depart="9.90" from="46240204#18" to="196117041#13" via="5672411#2 196117041#15 226015238#5 46240204#9" departLane="best" departSpeed="max" departPos="free"/>
    <trip id="67" depart="10.05" from="68674962#21" to="46240204#15" via="68674962#12 46240204#43 68674962#19 68674962#17" departLane="best" departSpeed="max" departPos="free"/>
    <trip id="68" depart="10.20" from="68674962#12" to="46240204#6" via="226015238#1 5671248#5 5672411#4 196117041#46" departLane="best" departSpeed="max" departPos="free"/>
    <trip id="69" depart="10.35" from="-5669802#5" to="46240204#7" via="46240204#38 46240204#29 46240204#29 196117041#13" departLane="best" departSpeed="max" departPos="free"/>
    <trip id="70" depart="10.50" from="5672411#3" to="68674962#35" via="46240204#30 68674962#28 5671248#5 68674962#40" departLane="best" departSpeed="max" departPos="free"/>
    <trip id="71" depart="10.65" from="196117041#9" to="5671248#3" via="46240204#12 5672411#5 46240204#23 226015238#5" departLane="best" departSpeed="max" departPos="free"/>
    <trip id="72" depart="10.80" from="196117041#46" to="196117041#5" via="68674962#15 -5669802#4 68674962#13 196117041#32" departLane="best" departSpeed="max" departPos="free"/>
    <trip id="73" depart="10.95" from="196117041#23" to="196117041#27" via="68674962#22 46240204#46 68674962#17 46240204#25" departLane="best" departSpeed="max" departPos="free"/>
    <trip id="74" depart="11.10" from="5672411#3" to="46240204#41" via="5671357#3 46240204#40 196117041#19 196117041#36" departLane="best" departSpeed="max" departPos="free"/>
    <trip id="75" depart="11.25" from="196117041#29" to="68674962#42" via="196117041#1 196117041#19 196117041#27 5672941#3" departLane="best" departSpeed="max" departPos="free"/>
    <trip id="76" depart="11.40" from="46240204#38" to="68668544#6" via="68674962#33 46240204#11 5671357#6 5671248#6" departLane="best" departSpeed="max" departPos="free"/>
    <trip id="77" depart="11.55" from="5671357#3" to="196117041#32" via="5671248#3 68674962#1 5672411#4 46240204#45" departLane="best" departSpeed="max" departPos="free"/>
    <trip id="78" depart="11.70" from="68674962#31" to="68674962#47" via="68668544#2 68674962#25 68674962#20 196117041#41" departLane="best" departSpeed="max" departPos="free"/>
    <trip id="79" depart="11.85" from="68674962#9" to="196117041#15" via="196117041#45 196117041#31 5671248#1 68674962#1" departLane="best" departSpeed="max" departPos="free"/>
    <trip id="80" depart="12.00" from="5672941#1" to="46240204#45" via="68674962#2 46240204#12 68674962#35 196117041#33" departLane="best" departSpeed="max" departPos="free"/>
    <trip id="81" depart="12.15" from="46240204#13" to="46240204#25" via="196117041#28 196117041#2 68674962#39 196117041#38" departLane="best" departSpeed="max" departPos="free"/>
    <trip id="82" depart="12.30" from="46240204#18" to="196117041#19" via="5671248#1 68674962#35 46240204#6 5671248#4" departLane="best" departSpeed="max" departPos="free"/>
    <trip id="83" depart="12.45" from="68674962#26" to="68674962#25" via="5672941#3 196117041#23 196117041#1 196117041#45" departLane="best" departSpeed="max" departPos="free"/>
    <trip id="84" depart="12.60" from="5671248#6" to="196117041#25" via="68668544#3 46240204#32 68674962#43 5672941#2" departLane="best" departSpeed="max" departPos="free"/>
    <trip id="85" depart="12.75" from="5671248#2" to="5671357#2" via="46240204#38 46240204#42 46240204#18 68668544#0" departLane="best" departSpeed="max" departPos="free"/>
    <trip id="86" depart="12.90" from="5669802#3" to="5671357#6" via="68674962#5 5671248#7 46240204#2 196117041#10" departLane="best" departSpeed="max" departPos="free"/>
    <trip id="87" depart="13.05" from="68674962#17" to="196117041#14" via="68668544#2 196117041#3 5671248#3 68674962#25" departLane="best" departSpeed="max" departPos="free"/>
    <trip id="88" depart="13.20" from="68674962#17" to="46240204#47" via="226015238#2 5671248#3 5671248#6 46240204#22" departLane="best" departSpeed="max" departPos="free"/>
    <trip id="89" depart="13.35" from="68674962#5" to="196117041#35" via="68674962#38 46240204#20 46240204#23 196117041#38" departLane="best" departSpeed="max" departPos="free"/>
    <trip id="90" depart="13.50" from="196117041#1" to="196117041#25" via="68668544#2 5672941#3 68668544#5 196117041#13" departLane="best" departSpeed="max" departPos="free"/>
    <trip id="91" depart="13.65" from="196117041#38" to="46240204#16" via="-5669802#3 -5669802#4 46240204#12 68674962#37" departLane="best" departSpeed="max" departPos="free"/>
    <trip id="92" depart="13.80" from="196117041#35" to="196117041#11" via="196117041#8 46240204#16 5671248#4 46240204#44" departLane="best" departSpeed="max" departPos="free"/>
    <trip id="93" depart="13.95" from="68674962#38" to="5671248#8" via="5671357#5 196117041#41 46240204#15 46240204#4" departLane="best" departSpeed="max" departPos="free"/>
    <trip id="94" depart="14.10" from="5671357#6" to="46240204#31" via="68674962#23 196117041#42 68668544#0 68674962#17" departLane="best" departSpeed="max" departPos="free"/>
    <trip id="95" depart="14.25" from="46240204#9" to="-5669802#5" via="5669802#5 196117041#19 68674962#22 196117041#8" departLane="best" departSpeed="max" departPos="free"/>
    <trip id="96" depart="14.40" from="46240204#12" to="196117041#27" via="196117041#31 226015238#2 196117041#30 196117041#21" departLane="best" departSpeed="max" departPos="free"/>
    <trip id="97" depart="14.55" from="46240204#13" to="46240204#3" via="196117041#11 5671248#1 5672411#5 196117041#29" departLane="best" departSpeed="max" departPos="free"/>
    <trip id="98" depart="14.70" from="196117041#41" to="5671248#4" via="5671248#5 68674962#10 68674962#41 68674962#14" departLane="best" departSpeed="max" departPos="free"/>
    <trip id="99" depart="14.85" from="5672941#3" to="68668544#2" via="5671248#7 46240204#24 196117041#6 5671357#5" departLane="best" departSpeed="max" departPos="free"/>
    <trip id="100" depart="15.00" from="68674962#1" to="5671357#7" via="5669802#3 226015238#3 196117041#15 5669802#5" departLane="best" departSpeed="max" departPos="free"/>
    <trip id="101" depart="15.15" from="68674962#17" to="5671357#7" via="196117041#11 46240204#3 46240204#8 46240204#38" departLane="best" departSpeed="max" departPos="free"/>
    <trip id="102" depart="15.30" from="5671357#0" to="196117041#18" via="5672411#7 68674962#1 196117041#12 46240204#29" departLane="best" departSpeed="max" departPos="free"/>
    <trip id="103" depart="15.45" from="-5669802#5" to="46240204#47" via="5669802#4 196117041#15 68674962#44 -5669802#4" departLane="best" departSpeed="max" departPos="free"/>
    <trip id="104" depart="15.60" from="5672411#3" to="46240204#3" via="68674962#16 196117041#24 46240204#1 68674962#9" departLane="best" departSpeed="max" departPos="free"/>
    <trip id="105" depart="15.75" from="46240204#5" to="196117041#46" via="46240204#12 68674962#30 68674962#43 68674962#34" departLane="best" departSpeed="max" departPos="free"/>
    <trip id="106" depart="15.90" from="46240204#10" to="196117041#38" via="46240204#40 46240204#4 5672941#3 5672411#3" departLane="best" departSpeed="max" departPos="free"/>
    <trip id="107" depart="16.05" from="5671357#0" to="46240204#46" via="46240204#9 68674962#35 226015238#3 68674962#5" departLane="best" departSpeed="max" departPos="free"/>
    <trip id="108" depart="16.20" from="68674962#17" to="46240204#2" via="-5669802#3 68674962#6 68674962#22 196117041#19" departLane="best" departSpeed="max" departPos="free"/>
    <trip id="109" depart="16.35" from="196117041#12" to="196117041#18" via="68674962#38 46240204#49 5671248#1 46240204#41" departLane="best" departSpeed="max" departPos="free"/>
    <trip id="110" depart="16.50" from="196117041#40" to="-5669802#5" via="5671248#2 68674962#47 5671248#5 46240204#8" departLane="best" departSpeed="max" departPos="free"/>
    <trip id="111" depart="16.65" from="68674962#5" to="68674962#45" via="196117041#21 46240204#16 68674962#38 196117041#23" departLane="best" departSpeed="max" departPos="free"/>
    <trip id="112" depart="16.80" from="46240204#20" to="5672941#3" via="68674962#47 5671357#1 68674962#10 196117041#45" departLane="best" departSpeed="max" departPos="free"/>
    <trip id="113" depart="16.95" from="-5669802#6" to="68674962#5" via="46240204#33 5672411#4 46240204#28 -5669802#3" departLane="best" departSpeed="max" departPos="free"/>
    <trip id="114" depart="17.10" from="46240204#30" to="226015238#3" via="46240204#32 46240204#25 5671248#5 68674962#38" departLane="best" departSpeed="max" departPos="free"/>
    <trip id="115" depart="17.25" from="-5669802#4" to="68674962#44" via="46240204#49 46240204#19 -5669802#1 -5669802#4" departLane="best" departSpeed="max" departPos="free"/>
    <trip id="116" depart="17.40" from="226015238#3" to="5672941#3" via="46240204#23 46240204#26 -5669802#1 68668544#4" departLane="best" departSpeed="max" departPos="free"/>
    <trip id="117" depart="17.55" from="-5669802#1" to="68674962#32" via="196117041#33 196117041#39 5671248#4 196117041#46" departLane="best" departSpeed="max" departPos="free"/>
    <trip id="118" depart="17.70" from="5671248#1" to="5671248#4" via="5671248#4 -5669802#5 5671357#1 68674962#37" departLane="best" departSpeed="max" departPos="free"/>
    <trip id="119" depart="17.85" from="5672941#0" to="46240204#37" via="226015238#1 46240204#13 46240204#10 68674962#22" departLane="best" departSpeed="max" departPos="free"/>
    <trip id="120" depart="18.00" from="46240204#8" to="196117041#10" via="68674962#29 5671357#6 68674962#18 68668544#3" departLane="best" departSpeed="max" departPos="free"/>
    <trip id="121" depart="18.15" from="46240204#22" to="68674962#35" via="5671357#4 46240204#34 5672941#1 68674962#14" departLane="best" departSpeed="max" departPos="free"/>
    <trip id="122" depart="18.30" from="5671248#7" to="5671357#3" via="196117041#42 196117041#36 196117041#27 68674962#3" departLane="best" departSpeed="max" departPos="free"/>
    <trip id="123" depart="18.45" from="46240204#47" to="5671357#8" via="5671357#5 196117041#27 5671357#7 5672941#3" departLane="best" departSpeed="max" departPos="free"/>
    <trip id="124" depart="18.60" from="5671248#0" to="46240204#15" via="-5669802#4 46240204#20 46240204#44 196117041#37" departLane="best" departSpeed="max" departPos="free"/>
    <trip id="125" depart="18.75" from="46240204#7" to="196117041#47" via="46240204#24 5672941#3 46240204#41 5669802#5" departLane="best" departSpeed="max" departPos="free"/>
    <trip id="126" depart="18.90" from="68674962#46" to="46240204#26" via="196117041#6 196117041#7 68674962#47 46240204#20" departLane="best" departSpeed="max" departPos="free"/>
    <trip id="127" depart="19.05" from="46240204#28" to="196117041#14" via="5671357#6 68674962#14 226015238#2 68674962#48" departLane="best" departSpeed="max" departPos="free"/>
    <trip id="128" depart="19.20" from="5671357#2" to="5672411#7" via="5672411#7 5672411#1 68674962#40 68674962#5" departLane="best" departSpeed="max" departPos="free"/>
    <trip id="129" depart="19.35" from="46240204#1" to="46240204#33" via="68674962#38 5672941#1 5671357#5 -5669802#5" departLane="best" departSpeed="max" departPos="free"/>
    <trip id="130" depart="19.50" from="68674962#47" to="196117041#11" via="46240204#29 196117041#37 46240204#17 5669802#5" departLane="best" departSpeed="max" departPos="free"/>
    <trip id="131" depart="19.65" from="46240204#3" to="68674962#17" via="5672411#4 5671248#5 68668544#3 -5669802#3" departLane="best" departSpeed="max" departPos="free"/>
    <trip id="132" depart="19.80" from="196117041#13" to="196117041#19" via="5672411#4 46240204#29 5671248#6 68674962#38" departLane="best" departSpeed="max" departPos="free"/>
    <trip id="133" depart="19.95" from="68674962#35" to="196117041#35" via="5671248#6 68674962#2 46240204#6 -5669802#5" departLane="best" departSpeed="max" departPos="free"/>
    <trip id="134" depart="20.10" from="5672411#2" to="68674962#37" via="226015238#2 196117041#4 5672411#5 5672411#2" departLane="best" departSpeed="max" departPos="free"/>
    <trip id="135" depart="20.25" from="5669802#5" to="68674962#29" via="68668544#8 5669802#4 5672411#1 196117041#27" departLane="best" departSpeed="max" departPos="free"/>
    <trip id="136" depart="20.40" from="-5669802#4" to="46240204#30" via="5672411#3 46240204#45 68674962#3 68668544#1" departLane="best" departSpeed="max" departPos="free"/>
    <trip id="137" depart="20.55" from="46240204#32" to="68668544#3" via="68674962#25 226015238#2 46240204#27 5672411#5" departLane="best" departSpeed="max" departPos="free"/>
    <trip id="138" depart="20.70" from="196117041#40" to="68668544#9" via="68668544#2 196117041#16 46240204#43 68674962#6" departLane="best" departSpeed="max" departPos="free"/>
    <trip id="139" depart="20.85" from="196117041#1" to="5671357#1" via="5669802#1 68674962#40 68674962#27 196117041#9" departLane="best" departSpeed="max" departPos="free"/>
    <trip id="140" depart="21.00" from="5669802#5" to="5669802#6" via="46240204#9 226015238#2 196117041#29 196117041#29" departLane="best" departSpeed="max" departPos="free"/>
    <trip id="141" depart="21.15" from="68674962#44" to="68674962#23" via="226015238#1 68674962#25 196117041#25 196117041#44" departLane="best" departSpeed="max" departPos="free"/>
    <trip id="142" depart="21.30" from="196117041#11" to="68674962#44" via="68674962#15 68674962#48 5672411#2 5671357#7" departLane="best" departSpeed="max" departPos="free"/>
    <trip id="143" depart="21.45" from="46240204#7" to="5672941#4" via="46240204#25 46240204#23 5671248#7 46240204#13" departLane="best" departSpeed="max" departPos="free"/>
    <trip id="144" depart="21.60" from="46240204#48" to="46240204#37" via="196117041#9 5671248#3 68674962#39 68674962#24" departLane="best" departSpeed="max" departPos="free"/>
    <trip id="145" depart="21.75" from="196117041#3" to="68674962#2" via="196117041#32 196117041#17 46240204#11 196117041#17" departLane="best" departSpeed="max" departPos="free"/>
    <trip id="146" depart="21.90" from="5671357#7" to="68674962#37" via="46240204#45 5671248#3 196117041#20 68674962#8" departLane="best" departSpeed="max" departPos="free"/>
    <trip id="147" depart="22.05" from="68668544#5" to="5669802#5" via="68674962#2 226015238#1 5669802#5 -5669802#1" departLane="best" departSpeed="max" departPos="free"/>
    <trip id="148" depart="22.20" from="5672411#0" to="46240204#19" via="196117041#37 5671357#4 5669802#1 46240204#34" departLane="best" departSpeed="max" departPos="free"/>
    <trip id="149" depart="22.35" from="5671248#0" to="5669802#1" via="46240204#45 5669802#3 196117041#15 46240204#5" departLane="best" departSpeed="max" departPos="free"/>
    <trip id="150" depart="22.50" from="5672411#0" to="196117041#43" via="5671357#6 196117041#5 196117041#3 68674962#32" departLane="best" departSpeed="max" departPos="free"/>
    <trip id="151" depart="22.65" from="46240204#25" to="46240204#2" via="46240204#18 46240204#39 68674962#23 46240204#35" departLane="best" departSpeed="max" departPos="free"/>
    <trip id="152" depart="22.80" from="46240204#18" to="46240204#34" via="226015238#3 68674962#43 68674962#28 5669802#3" departLane="best" departSpeed="max" departPos="free"/>
    <trip id="153" depart="22.95" from="196117041#30" to="68674962#14" via="68668544#0 46240204#15 46240204#1 5669802#1" departLane="best" departSpeed="max" departPos="free"/>
    <trip id="154" depart="23.10" from="196117041#35" to="5671357#6" via="68674962#3 196117041#31 46240204#30 68674962#13" departLane="best" departSpeed="max" departPos="free"/>
    <trip id="155" depart="23.25" from="68674962#38" to="-5669802#3" via="68674962#21 5672941#2 5669802#1 46240204#12" departLane="best" departSpeed="max" departPos="free"/>
    <trip id="156" depart="23.40" from="46240204#9" to="-5669802#0" via="68674962#15 196117041#41 68674962#47 68674962#9" departLane="best" departSpeed="max" departPos="free"/>
    <trip id="157" depart="23.55" from="68674962#15" to="68674962#6" via="5671248#3 46240204#36 -5669802#5 196117041#28" departLane="best" departSpeed="max" departPos="free"/>
    <trip id="158" depart="23.70" from="5672941#1" to="46240204#17" via="5672941#1 5671357#6 46240204#36 196117041#33" departLane="best" departSpeed="max" departPos="free"/>
    <trip id="159" depart="23.85" from="-5669802#6" to="196117041#29" via="196117041#11 5671357#7 -5669802#5 46240204#17" departLane="best" departSpeed="max" departPos="free"/>
    <trip id="160" depart="24.00" from="68674962#4" to="5669802#5" via="68674962#2 -5669802#5 196117041#41 196117041#38" departLane="best" departSpeed="max" departPos="free"/>
    <trip id="161" depart="24.15" from="68674962#18" to="5672411#7" via="196117041#9 196117041#44 46240204#8 196117041#40" departLane="best" departSpeed="max" departPos="free"/>
    <trip id="162" depart="24.30" from="46240204#42" to="68674962#36" via="5672411#5 196117041#36 46240204#28 68674962#14" departLane="best" departSpeed="max" departPos="free"/>
    <trip id="163" depart="24.45" from="-5669802#5" to="196117041#4" via="46240204#24 68674962#23 196117041#20 5671248#6" departLane="best" departSpeed="max" departPos="free"/>
    <trip id="164" depart="24.60" from="226015238#2" to="196117041#35" via="68674962#31 46240204#34 68674962#45 46240204#14" departLane="best" departSpeed="max" departPos="free"/>
    <trip id="165" depart="24.75" from="5672411#0" to="226015238#2" via="68674962#8 5672411#7 46240204#20 68674962#20" departLane="best" departSpeed="max" departPos="free"/>
    <trip id="166" depart="24.90" from="196117041#9" to="196117041#7" via="5671357#1 5672411#3 5671248#7 -5669802#5" departLane="best" departSpeed="max" departPos="free"/>
    <trip id="167" depart="25.05" from="68674962#36" to="5672941#4" via="196117041#6 196117041#5 46240204#12 226015238#5" departLane="best" departSpeed="max" departPos="free"/>
    <trip id="168" depart="25.20" from="196117041#19" to="5669802#6" via="68674962#20 68674962#23 5669802#1 -5669802#4" departLane="best" departSpeed="max" departPos="free"/>