<?xml version="1.0" encoding="UTF-8"?>

<!-- generated on Thu Jun  4 06:54:18 2015 by SUMO netconvert Version 0.23.0
<?xml version="1.0" encoding="UTF-8"?>

<configuration xmlns:xsi="http://www.w3.org/2001/XMLSchema-instance" xsi:noNamespaceSchemaLocation="http://sumo.dlr.de/xsd/netconvertConfiguration.xsd">

    <input>
        <osm-files value="Batavia.osm"/>
    </input>

    <output>
        <output-file value="Batavia.net.xml"/>
    </output>

    <projection>
        <proj.utm value="true"/>
    </projection>

</configuration>
-->

<net version="0.13" xmlns:xsi="http://www.w3.org/2001/XMLSchema-instance" xsi:noNamespaceSchemaLocation="http://sumo.dlr.de/xsd/net_file.xsd">

    <location netOffset="-728963.86,-4762654.89" convBoundary="0.00,0.00,2343.97,3221.12" origBoundary="-78.191239,42.981399,-78.146643,43.010547" projParameter="+proj=utm +zone=17 +ellps=WGS84 +datum=WGS84 +units=m +no_defs"/>

    <edge id=":2072275754_0" function="internal">
        <lane id=":2072275754_0_0" index="0" speed="13.89" length="0.10" shape="910.88,1375.79 910.88,1375.79"/>
    </edge>
    <edge id=":2072275754_1" function="internal">
        <lane id=":2072275754_1_0" index="0" speed="13.89" length="2.41" shape="910.88,1375.79 911.52,1374.44 912.27,1373.91"/>
    </edge>
    <edge id=":2072275754_4" function="internal">
        <lane id=":2072275754_4_0" index="0" speed="13.89" length="2.41" shape="912.27,1373.91 913.15,1374.20 914.15,1375.30"/>
    </edge>
    <edge id=":2072275754_2" function="internal">
        <lane id=":2072275754_2_0" index="0" speed="13.89" length="0.10" shape="914.15,1375.30 914.15,1375.30"/>
    </edge>
    <edge id=":2072275754_3" function="internal">
        <lane id=":2072275754_3_0" index="0" speed="13.89" length="2.41" shape="914.15,1375.30 913.52,1376.64 912.76,1377.17"/>
    </edge>
    <edge id=":2072275754_5" function="internal">
        <lane id=":2072275754_5_0" index="0" speed="13.89" length="2.41" shape="912.76,1377.17 911.88,1376.89 910.88,1375.79"/>
    </edge>
    <edge id=":221618919_0" function="internal">
        <lane id=":221618919_0_0" index="0" speed="13.89" length="4.82" shape="780.50,545.06 780.82,543.61 781.43,542.92 782.35,543.01 783.57,543.86"/>
    </edge>
    <edge id=":221618944_0" function="internal">
        <lane id=":221618944_0_0" index="0" speed="13.89" length="5.23" shape="883.00,1194.19 882.58,1192.91 881.79,1192.05 880.65,1191.61 879.15,1191.58"/>
    </edge>
    <edge id=":221618944_1" function="internal">
        <lane id=":221618944_1_0" index="0" speed="13.89" length="9.51" shape="883.00,1194.19 881.44,1184.81"/>
    </edge>
    <edge id=":221618944_2" function="internal">
        <lane id=":221618944_2_0" index="0" speed="13.89" length="2.41" shape="883.00,1194.19 883.61,1192.83 884.36,1192.29"/>
    </edge>
    <edge id=":221618944_9" function="internal">
        <lane id=":221618944_9_0" index="0" speed="13.89" length="2.41" shape="884.36,1192.29 885.24,1192.56 886.26,1193.64"/>
    </edge>
    <edge id=":221618944_3" function="internal">
        <lane id=":221618944_3_0" index="0" speed="13.89" length="9.50" shape="884.70,1184.27 886.26,1193.64"/>
    </edge>
    <edge id=":221618944_4" function="internal">
        <lane id=":221618944_4_0" index="0" speed="13.89" length="5.30" shape="884.70,1184.27 884.76,1187.20 883.86,1189.39"/>
    </edge>
    <edge id=":221618944_5" function="internal">
        <lane id=":221618944_5_0" index="0" speed="13.89" length="2.41" shape="884.70,1184.27 884.09,1185.63 883.34,1186.17"/>
    </edge>
    <edge id=":221618944_10" function="internal">
        <lane id=":221618944_10_0" index="0" speed="13.89" length="5.30" shape="883.86,1189.39 881.99,1190.85 879.15,1191.58"/>
    </edge>
    <edge id=":221618944_11" function="internal">
        <lane id=":221618944_11_0" index="0" speed="13.89" length="2.41" shape="883.34,1186.17 882.46,1185.90 881.44,1184.81"/>
    </edge>
    <edge id=":221618944_6" function="internal">
        <lane id=":221618944_6_0" index="0" speed="13.89" length="5.07" shape="878.79,1188.30 880.15,1187.96 881.04,1187.26 881.47,1186.21 881.44,1184.81"/>
    </edge>
    <edge id=":221618944_7" function="internal">
        <lane id=":221618944_7_0" index="0" speed="13.89" length="10.34" shape="878.79,1188.30 881.68,1188.37 883.89,1189.28 885.41,1191.04 886.26,1193.64"/>
    </edge>
    <edge id=":221618944_8" function="internal">
        <lane id=":221618944_8_0" index="0" speed="13.89" length="4.82" shape="878.79,1188.30 880.11,1188.99 880.61,1189.76 880.29,1190.63 879.15,1191.58"/>
    </edge>
    <edge id=":221618947_0" function="internal">
        <lane id=":221618947_0_0" index="0" speed="20.83" length="5.93" shape="894.02,1261.36 893.53,1259.63 892.71,1258.80 891.54,1258.89 890.04,1259.88"/>
    </edge>
    <edge id=":221618947_1" function="internal">
        <lane id=":221618947_1_0" index="0" speed="13.89" length="22.40" shape="894.02,1261.36 893.29,1256.51 892.32,1250.29 891.34,1244.08 890.55,1239.23"/>
    </edge>
    <edge id=":221618947_2" function="internal">
        <lane id=":221618947_2_0" index="0" speed="20.83" length="9.24" shape="894.02,1261.36 893.73,1255.64 894.34,1252.18"/>
    </edge>
    <edge id=":221618947_3" function="internal">
        <lane id=":221618947_3_0" index="0" speed="13.89" length="2.41" shape="894.02,1261.36 894.66,1260.02 895.42,1259.49"/>
    </edge>
    <edge id=":221618947_18" function="internal">
        <lane id=":221618947_18_0" index="0" speed="20.83" length="11.27" shape="894.34,1252.18 894.61,1250.62 896.69,1246.29 899.95,1242.66"/>
    </edge>
    <edge id=":221618947_19" function="internal">
        <lane id=":221618947_19_0" index="0" speed="13.89" length="2.41" shape="895.42,1259.49 896.29,1259.78 897.29,1260.88"/>
    </edge>
    <edge id=":221618947_4" function="internal">
        <lane id=":221618947_4_0" index="0" speed="20.83" length="15.54" shape="904.23,1247.68 900.84,1251.03 898.55,1254.35 897.37,1257.63 897.29,1260.88"/>
    </edge>
    <edge id=":221618947_5" function="internal">
        <lane id=":221618947_5_0" index="0" speed="27.78" length="18.73" shape="904.23,1247.68 900.01,1251.29 897.12,1253.76 894.24,1256.24 890.04,1259.88"/>
        <lane id=":221618947_5_1" index="1" speed="27.78" length="18.73" shape="902.09,1245.17 897.86,1248.78 894.97,1251.26 892.09,1253.74 887.88,1257.39"/>
    </edge>
    <edge id=":221618947_7" function="internal">
        <lane id=":221618947_7_0" index="0" speed="20.83" length="6.31" shape="902.09,1245.17 897.91,1247.75 896.51,1247.70"/>
    </edge>
    <edge id=":221618947_8" function="internal">
        <lane id=":221618947_8_0" index="0" speed="27.78" length="2.41" shape="902.09,1245.17 900.61,1245.34 899.76,1244.98"/>
    </edge>
    <edge id=":221618947_20" function="internal">
        <lane id=":221618947_20_0" index="0" speed="20.83" length="11.45" shape="896.51,1247.70 894.59,1247.62 892.14,1244.78 890.55,1239.23"/>
    </edge>
    <edge id=":221618947_21" function="internal">
        <lane id=":221618947_21_0" index="0" speed="27.78" length="2.41" shape="899.76,1244.98 899.54,1244.09 899.95,1242.66"/>
    </edge>
    <edge id=":221618947_9" function="internal">
        <lane id=":221618947_9_0" index="0" speed="20.83" length="5.87" shape="893.80,1238.69 894.32,1240.38 895.16,1241.19 896.32,1241.11 897.81,1240.15"/>
    </edge>
    <edge id=":221618947_10" function="internal">
        <lane id=":221618947_10_0" index="0" speed="13.89" length="22.46" shape="893.80,1238.69 894.59,1243.54 895.58,1249.78 896.55,1256.02 897.29,1260.88"/>
    </edge>
    <edge id=":221618947_11" function="internal">
        <lane id=":221618947_11_0" index="0" speed="20.83" length="9.25" shape="893.80,1238.69 894.18,1244.30 893.56,1247.87"/>
    </edge>
    <edge id=":221618947_12" function="internal">
        <lane id=":221618947_12_0" index="0" speed="13.89" length="2.41" shape="893.80,1238.69 893.19,1240.05 892.45,1240.59"/>
    </edge>
    <edge id=":221618947_22" function="internal">
        <lane id=":221618947_22_0" index="0" speed="20.83" length="11.29" shape="893.56,1247.87 893.31,1249.29 891.22,1253.65 887.88,1257.39"/>
    </edge>
    <edge id=":221618947_23" function="internal">
        <lane id=":221618947_23_0" index="0" speed="13.89" length="2.41" shape="892.45,1240.59 891.57,1240.32 890.55,1239.23"/>
    </edge>
    <edge id=":221618947_13" function="internal">
        <lane id=":221618947_13_0" index="0" speed="20.83" length="15.53" shape="883.56,1252.40 887.01,1248.97 889.32,1245.63 890.50,1242.38 890.55,1239.23"/>
    </edge>
    <edge id=":221618947_14" function="internal">
        <lane id=":221618947_14_0" index="0" speed="27.78" length="18.78" shape="883.56,1252.40 887.77,1248.75 890.66,1246.25 893.56,1243.77 897.81,1240.15"/>
        <lane id=":221618947_14_1" index="1" speed="27.78" length="18.78" shape="885.72,1254.89 889.93,1251.25 892.82,1248.76 895.71,1246.27 899.95,1242.66"/>
    </edge>
    <edge id=":221618947_16" function="internal">
        <lane id=":221618947_16_0" index="0" speed="20.83" length="6.46" shape="885.72,1254.89 890.00,1252.19 891.40,1252.23"/>
    </edge>
    <edge id=":221618947_17" function="internal">
        <lane id=":221618947_17_0" index="0" speed="27.78" length="2.41" shape="885.72,1254.89 887.19,1254.71 888.05,1255.06"/>
    </edge>
    <edge id=":221618947_24" function="internal">
        <lane id=":221618947_24_0" index="0" speed="20.83" length="11.63" shape="891.40,1252.23 893.35,1252.28 895.78,1255.18 897.29,1260.88"/>
    </edge>
    <edge id=":221618947_25" function="internal">
        <lane id=":221618947_25_0" index="0" speed="27.78" length="2.41" shape="888.05,1255.06 888.28,1255.95 887.88,1257.39"/>
    </edge>
    <edge id=":221618951_0" function="internal">
        <lane id=":221618951_0_0" index="0" speed="13.89" length="6.91" shape="910.11,1370.61 909.09,1363.78"/>
    </edge>
    <edge id=":221618951_1" function="internal">
        <lane id=":221618951_1_0" index="0" allow="rail" speed="48.61" length="8.34" shape="910.11,1370.61 910.29,1369.05 911.32,1367.72 913.22,1366.63 915.98,1365.76"/>
    </edge>
    <edge id=":221618951_2" function="internal">
        <lane id=":221618951_2_0" index="0" speed="13.89" length="4.82" shape="910.11,1370.61 910.74,1369.27 911.49,1368.73 912.37,1369.02 913.37,1370.12"/>
    </edge>
    <edge id=":221618951_3" function="internal">
        <lane id=":221618951_3_0" index="0" allow="rail" speed="48.61" length="5.10" shape="912.36,1363.30 912.76,1364.65 913.50,1365.52 914.57,1365.89 915.98,1365.76"/>
    </edge>
    <edge id=":221618951_4" function="internal">
        <lane id=":221618951_4_0" index="0" speed="13.89" length="6.90" shape="912.36,1363.30 913.37,1370.12"/>
    </edge>
    <edge id=":221618951_5" function="internal">
        <lane id=":221618951_5_0" index="0" speed="13.89" length="4.82" shape="912.36,1363.30 911.72,1364.64 910.96,1365.17 910.09,1364.88 909.09,1363.78"/>
    </edge>
    <edge id=":221618951_6" function="internal">
        <lane id=":221618951_6_0" index="0" speed="48.61" length="5.77" shape="906.42,1368.23 907.79,1367.62 908.69,1366.67 909.12,1365.39 909.09,1363.78"/>
    </edge>
    <edge id=":221618951_7" function="internal">
        <lane id=":221618951_7_0" index="0" allow="rail" speed="83.33" length="9.87" shape="906.42,1368.23 915.98,1365.76"/>
    </edge>
    <edge id=":221618951_8" function="internal">
        <lane id=":221618951_8_0" index="0" speed="48.61" length="8.22" shape="906.42,1368.23 909.25,1367.68 911.36,1367.80 912.73,1368.62 913.37,1370.12"/>
    </edge>
    <edge id=":221618966_0" function="internal">
        <lane id=":221618966_0_0" index="0" speed="13.89" length="4.85" shape="933.20,1526.53 932.82,1525.30 932.11,1524.49 931.07,1524.10 929.70,1524.13"/>
    </edge>
    <edge id=":221618966_1" function="internal">
        <lane id=":221618966_1_0" index="0" speed="13.89" length="9.30" shape="933.20,1526.53 931.86,1517.33"/>
    </edge>
    <edge id=":221618966_2" function="internal">
        <lane id=":221618966_2_0" index="0" speed="13.89" length="4.42" shape="933.20,1526.53 932.79,1524.69 933.14,1523.57 934.24,1523.18 934.43,1523.22"/>
    </edge>
    <edge id=":221618966_9" function="internal">
        <lane id=":221618966_9_0" index="0" speed="13.89" length="1.69" shape="934.43,1523.22 936.09,1523.51"/>
    </edge>
    <edge id=":221618966_3" function="internal">
        <lane id=":221618966_3_0" index="0" speed="13.89" length="6.73" shape="935.12,1516.85 936.09,1523.51"/>
    </edge>
    <edge id=":221618966_4" function="internal">
        <lane id=":221618966_4_0" index="0" speed="13.89" length="5.25" shape="935.12,1516.85 935.13,1519.66 934.22,1521.81 934.14,1521.88"/>
    </edge>
    <edge id=":221618966_5" function="internal">
        <lane id=":221618966_5_0" index="0" speed="13.89" length="2.41" shape="935.12,1516.85 934.49,1518.20 933.73,1518.72"/>
    </edge>
    <edge id=":221618966_10" function="internal">
        <lane id=":221618966_10_0" index="0" speed="13.89" length="5.07" shape="934.14,1521.88 932.41,1523.30 929.70,1524.13"/>
    </edge>
    <edge id=":221618966_11" function="internal">
        <lane id=":221618966_11_0" index="0" speed="13.89" length="2.41" shape="933.73,1518.72 932.85,1518.43 931.86,1517.33"/>
    </edge>
    <edge id=":221618966_6" function="internal">
        <lane id=":221618966_6_0" index="0" speed="13.89" length="5.05" shape="929.18,1520.87 930.52,1520.46 931.41,1519.74 931.86,1518.69 931.86,1517.33"/>
    </edge>
    <edge id=":221618966_7" function="internal">
        <lane id=":221618966_7_0" index="0" speed="13.89" length="8.28" shape="929.18,1520.87 932.01,1520.66 934.10,1521.03 935.46,1521.98 936.09,1523.51"/>
    </edge>
    <edge id=":221618966_8" function="internal">
        <lane id=":221618966_8_0" index="0" speed="13.89" length="4.82" shape="929.18,1520.87 930.53,1521.49 931.07,1522.24 930.79,1523.12 929.70,1524.13"/>
    </edge>
    <edge id=":221618968_0" function="internal">
        <lane id=":221618968_0_0" index="0" speed="13.89" length="6.72" shape="934.19,1533.38 933.23,1526.73"/>
    </edge>
    <edge id=":221618968_1" function="internal">
        <lane id=":221618968_1_0" index="0" speed="13.89" length="5.09" shape="934.19,1533.38 934.20,1530.62 935.11,1528.48"/>
    </edge>
    <edge id=":221618968_2" function="internal">
        <lane id=":221618968_2_0" index="0" speed="13.89" length="2.41" shape="934.19,1533.38 934.83,1532.04 935.59,1531.52"/>
    </edge>
    <edge id=":221618968_9" function="internal">
        <lane id=":221618968_9_0" index="0" speed="13.89" length="5.23" shape="935.11,1528.48 936.93,1526.96 939.66,1526.07"/>
    </edge>
    <edge id=":221618968_10" function="internal">
        <lane id=":221618968_10_0" index="0" speed="13.89" length="2.41" shape="935.59,1531.52 936.46,1531.81 937.45,1532.91"/>
    </edge>
    <edge id=":221618968_3" function="internal">
        <lane id=":221618968_3_0" index="0" speed="13.89" length="5.15" shape="940.25,1529.32 938.87,1529.76 937.94,1530.51 937.47,1531.56 937.45,1532.91"/>
    </edge>
    <edge id=":221618968_4" function="internal">
        <lane id=":221618968_4_0" index="0" speed="13.89" length="8.42" shape="940.25,1529.32 937.38,1529.60 935.26,1529.26 933.87,1528.30 933.23,1526.73"/>
    </edge>
    <edge id=":221618968_5" function="internal">
        <lane id=":221618968_5_0" index="0" speed="13.89" length="4.82" shape="940.25,1529.32 938.88,1528.73 938.33,1527.99 938.59,1527.10 939.66,1526.07"/>
    </edge>
    <edge id=":221618968_6" function="internal">
        <lane id=":221618968_6_0" index="0" speed="13.89" length="4.88" shape="936.12,1523.71 936.50,1524.96 937.22,1525.76 938.27,1526.14 939.66,1526.07"/>
    </edge>
    <edge id=":221618968_7" function="internal">
        <lane id=":221618968_7_0" index="0" speed="13.89" length="9.30" shape="936.12,1523.71 937.45,1532.91"/>
    </edge>
    <edge id=":221618968_8" function="internal">
        <lane id=":221618968_8_0" index="0" speed="13.89" length="4.42" shape="936.12,1523.71 936.53,1525.55 936.18,1526.67 935.08,1527.06 934.89,1527.02"/>
    </edge>
    <edge id=":221618968_11" function="internal">
        <lane id=":221618968_11_0" index="0" speed="13.89" length="1.69" shape="934.89,1527.02 933.23,1526.73"/>
    </edge>
    <edge id=":221618980_0" function="internal">
        <lane id=":221618980_0_0" index="0" speed="20.83" length="5.05" shape="958.81,1698.98 958.41,1697.63 957.70,1696.73 956.66,1696.26 955.30,1696.23"/>
    </edge>
    <edge id=":221618980_1" function="internal">
        <lane id=":221618980_1_0" index="0" speed="13.89" length="16.46" shape="958.81,1698.98 958.34,1695.03 957.97,1690.79 957.56,1686.55 956.97,1682.62"/>
    </edge>
    <edge id=":221618980_2" function="internal">
        <lane id=":221618980_2_0" index="0" speed="20.83" length="7.96" shape="958.81,1698.98 958.62,1694.71 959.48,1691.51 959.73,1691.23"/>
    </edge>
    <edge id=":221618980_3" function="internal">
        <lane id=":221618980_3_0" index="0" speed="13.89" length="2.41" shape="958.81,1698.98 959.53,1697.67 960.32,1697.19"/>
    </edge>
    <edge id=":221618980_18" function="internal">
        <lane id=":221618980_18_0" index="0" speed="20.83" length="5.66" shape="959.73,1691.23 961.40,1689.38 964.38,1688.31"/>
    </edge>
    <edge id=":221618980_19" function="internal">
        <lane id=":221618980_19_0" index="0" speed="13.89" length="2.41" shape="960.32,1697.19 961.17,1697.53 962.10,1698.70"/>
    </edge>
    <edge id=":221618980_4" function="internal">
        <lane id=":221618980_4_0" index="0" speed="20.83" length="5.74" shape="965.35,1694.84 963.75,1695.29 962.67,1696.09 962.12,1697.22 962.10,1698.70"/>
    </edge>
    <edge id=":221618980_5" function="internal">
        <lane id=":221618980_5_0" index="0" speed="27.78" length="10.11" shape="965.35,1694.84 962.37,1695.29 960.33,1695.58 958.29,1695.85 955.30,1696.23"/>
        <lane id=":221618980_5_1" index="1" speed="27.78" length="10.11" shape="964.86,1691.58 961.91,1692.02 959.88,1692.31 957.86,1692.58 954.89,1692.95"/>
    </edge>
    <edge id=":221618980_7" function="internal">
        <lane id=":221618980_7_0" index="0" speed="20.83" length="4.36" shape="964.86,1691.58 962.14,1691.35 960.81,1690.42"/>
    </edge>
    <edge id=":221618980_8" function="internal">
        <lane id=":221618980_8_0" index="0" speed="27.78" length="2.41" shape="964.86,1691.58 963.52,1690.95 962.99,1690.19"/>
    </edge>
    <edge id=":221618980_20" function="internal">
        <lane id=":221618980_20_0" index="0" speed="20.83" length="8.91" shape="960.81,1690.42 959.91,1689.79 958.19,1686.88 956.97,1682.62"/>
    </edge>
    <edge id=":221618980_21" function="internal">
        <lane id=":221618980_21_0" index="0" speed="27.78" length="2.41" shape="962.99,1690.19 963.27,1689.31 964.38,1688.31"/>
    </edge>
    <edge id=":221618980_9" function="internal">
        <lane id=":221618980_9_0" index="0" speed="20.83" length="5.09" shape="960.27,1682.35 960.73,1683.70 961.48,1684.60 962.54,1685.05 963.89,1685.05"/>
    </edge>
    <edge id=":221618980_10" function="internal">
        <lane id=":221618980_10_0" index="0" speed="13.89" length="16.45" shape="960.27,1682.35 960.86,1686.28 961.27,1690.51 961.64,1694.75 962.10,1698.70"/>
    </edge>
    <edge id=":221618980_11" function="internal">
        <lane id=":221618980_11_0" index="0" speed="20.83" length="8.12" shape="960.27,1682.35 960.65,1686.65 959.88,1689.85 959.53,1690.23"/>
    </edge>
    <edge id=":221618980_12" function="internal">
        <lane id=":221618980_12_0" index="0" speed="13.89" length="2.42" shape="960.27,1682.35 959.55,1683.66 958.76,1684.14"/>
    </edge>
    <edge id=":221618980_22" function="internal">
        <lane id=":221618980_22_0" index="0" speed="20.83" length="5.55" shape="959.53,1690.23 957.96,1691.95 954.89,1692.95"/>
    </edge>
    <edge id=":221618980_23" function="internal">
        <lane id=":221618980_23_0" index="0" speed="13.89" length="2.42" shape="958.76,1684.14 957.90,1683.79 956.97,1682.62"/>
    </edge>
    <edge id=":221618980_13" function="internal">
        <lane id=":221618980_13_0" index="0" speed="20.83" length="5.53" shape="954.07,1686.41 955.59,1686.00 956.57,1685.24 957.04,1684.11 956.97,1682.62"/>
    </edge>
    <edge id=":221618980_14" function="internal">
        <lane id=":221618980_14_0" index="0" speed="27.78" length="9.95" shape="954.07,1686.41 963.89,1685.05"/>
        <lane id=":221618980_14_1" index="1" speed="27.78" length="9.95" shape="954.48,1689.68 964.38,1688.31"/>
    </edge>
    <edge id=":221618980_16" function="internal">
        <lane id=":221618980_16_0" index="0" speed="20.83" length="4.37" shape="954.48,1689.68 957.26,1689.95 958.53,1690.88"/>
    </edge>
    <edge id=":221618980_17" function="internal">
        <lane id=":221618980_17_0" index="0" speed="27.78" length="2.41" shape="954.48,1689.68 955.81,1690.34 956.32,1691.11"/>
    </edge>
    <edge id=":221618980_24" function="internal">
        <lane id=":221618980_24_0" index="0" speed="20.83" length="8.83" shape="958.53,1690.88 959.46,1691.55 961.07,1694.46 962.10,1698.70"/>
    </edge>
    <edge id=":221618980_25" function="internal">
        <lane id=":221618980_25_0" index="0" speed="27.78" length="2.41" shape="956.32,1691.11 956.02,1691.98 954.89,1692.95"/>
    </edge>
    <edge id=":221619412_0" function="internal">
        <lane id=":221619412_0_0" index="0" speed="27.78" length="0.10" shape="2200.83,129.24 2200.82,129.25"/>
        <lane id=":221619412_0_1" index="1" speed="27.78" length="0.10" shape="2198.68,126.73 2198.68,126.73"/>
    </edge>
    <edge id=":221619412_2" function="internal">
        <lane id=":221619412_2_0" index="0" speed="27.78" length="2.41" shape="2198.68,126.73 2197.21,126.91 2196.36,126.55"/>
    </edge>
    <edge id=":221619412_6" function="internal">
        <lane id=":221619412_6_0" index="0" speed="27.78" length="2.41" shape="2196.36,126.55 2196.14,125.65 2196.54,124.22"/>
    </edge>
    <edge id=":221619412_3" function="internal">
        <lane id=":221619412_3_0" index="0" speed="27.78" length="0.10" shape="2194.41,121.71 2194.40,121.71"/>
        <lane id=":221619412_3_1" index="1" speed="27.78" length="0.10" shape="2196.54,124.22 2196.54,124.22"/>
    </edge>
    <edge id=":221619412_5" function="internal">
        <lane id=":221619412_5_0" index="0" speed="27.78" length="2.41" shape="2196.54,124.22 2198.02,124.05 2198.87,124.41"/>
    </edge>
    <edge id=":221619412_7" function="internal">
        <lane id=":221619412_7_0" index="0" speed="27.78" length="2.41" shape="2198.87,124.41 2199.09,125.30 2198.68,126.73"/>
    </edge>
    <edge id=":221626194_0" function="internal">
        <lane id=":221626194_0_0" index="0" allow="rail" speed="83.33" length="1.42" shape="745.76,1403.08 745.25,1403.22 745.08,1403.31 745.26,1403.34 745.78,1403.32"/>
    </edge>
    <edge id=":221626194_1" function="internal">
        <lane id=":221626194_1_0" index="0" allow="rail" speed="83.33" length="2.51" shape="743.28,1403.50 745.78,1403.32"/>
    </edge>
    <edge id=":221633881_0" function="internal">
        <lane id=":221633881_0_0" index="0" speed="27.78" length="22.38" shape="306.88,1790.52 298.94,1791.21 294.02,1789.15 292.12,1784.33 293.24,1776.75"/>
        <lane id=":221633881_0_1" index="1" speed="27.78" length="22.38" shape="306.18,1787.29 300.52,1787.79 297.01,1786.32 295.66,1782.88 296.47,1777.48"/>
    </edge>
    <edge id=":221633881_2" function="internal">
        <lane id=":221633881_2_0" index="0" speed="27.78" length="2.67" shape="306.18,1787.29 304.79,1786.75 304.21,1786.04 304.28,1785.78"/>
    </edge>
    <edge id=":221633881_6" function="internal">
        <lane id=":221633881_6_0" index="0" speed="27.78" length="2.15" shape="304.28,1785.78 304.44,1785.14 305.47,1784.07"/>
    </edge>
    <edge id=":221633881_3" function="internal">
        <lane id=":221633881_3_0" index="0" speed="27.78" length="7.37" shape="302.86,1778.93 302.71,1779.98 302.98,1780.65 303.67,1780.94 304.77,1780.85"/>
        <lane id=":221633881_3_1" index="1" speed="27.78" length="7.37" shape="299.67,1778.21 299.20,1781.43 300.01,1783.48 302.10,1784.36 305.47,1784.07"/>
    </edge>
    <edge id=":221633881_5" function="internal">
        <lane id=":221633881_5_0" index="0" speed="27.78" length="2.40" shape="299.67,1778.21 298.60,1779.23 297.71,1779.45"/>
    </edge>
    <edge id=":221633881_7" function="internal">
        <lane id=":221633881_7_0" index="0" speed="27.78" length="2.40" shape="297.71,1779.45 297.00,1778.87 296.47,1777.48"/>
    </edge>
    <edge id=":221634442_0" function="internal">
        <lane id=":221634442_0_0" index="0" speed="25.00" length="5.35" shape="591.25,1522.28 589.05,1521.86 587.44,1521.61 586.41,1521.51 585.96,1521.56"/>
    </edge>
    <edge id=":221634442_1" function="internal">
        <lane id=":221634442_1_0" index="0" speed="25.00" length="15.19" shape="591.25,1522.28 585.94,1520.74 583.22,1518.73 583.07,1516.27 585.50,1513.33"/>
    </edge>
    <edge id=":221634442_2" function="internal">
        <lane id=":221634442_2_0" index="0" speed="27.78" length="4.99" shape="589.78,1518.36 585.96,1521.56"/>
        <lane id=":221634442_2_1" index="1" speed="27.78" length="4.99" shape="587.64,1515.84 583.82,1519.06"/>
    </edge>
    <edge id=":221634442_4" function="internal">
        <lane id=":221634442_4_0" index="0" speed="27.78" length="2.41" shape="587.64,1515.84 586.16,1516.02 585.31,1515.66"/>
    </edge>
    <edge id=":221634442_8" function="internal">
        <lane id=":221634442_8_0" index="0" speed="27.78" length="2.41" shape="585.31,1515.66 585.09,1514.76 585.50,1513.33"/>
    </edge>
    <edge id=":221634442_5" function="internal">
        <lane id=":221634442_5_0" index="0" speed="27.78" length="5.01" shape="579.52,1514.05 583.36,1510.82"/>
        <lane id=":221634442_5_1" index="1" speed="27.78" length="5.01" shape="581.67,1516.55 585.50,1513.33"/>
    </edge>
    <edge id=":221634442_7" function="internal">
        <lane id=":221634442_7_0" index="0" speed="27.78" length="2.41" shape="581.67,1516.55 583.14,1516.37 583.99,1516.73"/>
    </edge>
    <edge id=":221634442_9" function="internal">
        <lane id=":221634442_9_0" index="0" speed="27.78" length="2.41" shape="583.99,1516.73 584.22,1517.63 583.82,1519.06"/>
    </edge>
    <edge id=":221634454_0" function="internal">
        <lane id=":221634454_0_0" index="0" speed="18.06" length="7.49" shape="613.26,1533.86 608.45,1528.12"/>
    </edge>
    <edge id=":221634454_1" function="internal">
        <lane id=":221634454_1_0" index="0" speed="13.89" length="7.90" shape="613.26,1533.86 611.94,1526.07"/>
    </edge>
    <edge id=":221634454_2" function="internal">
        <lane id=":221634454_2_0" index="0" speed="13.89" length="2.41" shape="613.26,1533.86 613.90,1532.52 614.65,1531.99"/>
    </edge>
    <edge id=":221634454_6" function="internal">
        <lane id=":221634454_6_0" index="0" speed="13.89" length="2.41" shape="614.65,1531.99 615.53,1532.28 616.52,1533.39"/>
    </edge>
    <edge id=":221634454_3" function="internal">
        <lane id=":221634454_3_0" index="0" speed="13.89" length="7.98" shape="615.20,1525.52 616.52,1533.39"/>
    </edge>
    <edge id=":221634454_4" function="internal">
        <lane id=":221634454_4_0" index="0" speed="18.06" length="5.53" shape="615.20,1525.52 615.37,1529.17 614.35,1530.74"/>
    </edge>
    <edge id=":221634454_5" function="internal">
        <lane id=":221634454_5_0" index="0" speed="13.89" length="2.41" shape="615.20,1525.52 614.59,1526.87 613.85,1527.42"/>
    </edge>
    <edge id=":221634454_7" function="internal">
        <lane id=":221634454_7_0" index="0" speed="18.06" length="6.69" shape="614.35,1530.74 614.30,1530.82 611.99,1530.47 608.45,1528.12"/>
    </edge>
    <edge id=":221634454_8" function="internal">
        <lane id=":221634454_8_0" index="0" speed="13.89" length="2.41" shape="613.85,1527.42 612.96,1527.15 611.94,1526.07"/>
    </edge>
    <edge id=":221634464_0" function="internal">
        <lane id=":221634464_0_0" index="0" speed="27.78" length="7.92" shape="641.81,1474.05 635.82,1479.21"/>
        <lane id=":221634464_0_1" index="1" speed="27.78" length="7.92" shape="639.67,1471.54 633.67,1476.71"/>
    </edge>
    <edge id=":221634464_2" function="internal">
        <lane id=":221634464_2_0" index="0" speed="27.78" length="2.41" shape="639.67,1471.54 638.19,1471.71 637.34,1471.35"/>
    </edge>
    <edge id=":221634464_8" function="internal">
        <lane id=":221634464_8_0" index="0" speed="27.78" length="2.41" shape="637.34,1471.35 637.12,1470.46 637.53,1469.03"/>
    </edge>
    <edge id=":221634464_3" function="internal">
        <lane id=":221634464_3_0" index="0" speed="25.00" length="7.80" shape="627.97,1467.69 630.18,1468.06 632.15,1467.99 633.88,1467.48 635.38,1466.52"/>
    </edge>
    <edge id=":221634464_4" function="internal">
        <lane id=":221634464_4_0" index="0" speed="25.00" length="14.64" shape="627.97,1467.69 633.01,1469.45 635.64,1471.54 635.86,1473.96 633.67,1476.71"/>
    </edge>
    <edge id=":221634464_5" function="internal">
        <lane id=":221634464_5_0" index="0" speed="27.78" length="7.94" shape="629.37,1471.70 635.38,1466.52"/>
        <lane id=":221634464_5_1" index="1" speed="27.78" length="7.94" shape="631.52,1474.21 637.53,1469.03"/>
    </edge>
    <edge id=":221634464_7" function="internal">
        <lane id=":221634464_7_0" index="0" speed="27.78" length="2.41" shape="631.52,1474.21 632.99,1474.03 633.84,1474.38"/>
    </edge>
    <edge id=":221634464_9" function="internal">
        <lane id=":221634464_9_0" index="0" speed="27.78" length="2.41" shape="633.84,1474.38 634.07,1475.28 633.67,1476.71"/>
    </edge>
    <edge id=":221634477_0" function="internal">