<?xml version="1.0" encoding="UTF-8"?>

<!-- generated on Thu Jun  4 06:54:24 2015 by SUMO polyconvert Version 0.23.0
<?xml version="1.0" encoding="UTF-8"?>

<configuration xmlns:xsi="http://www.w3.org/2001/XMLSchema-instance" xsi:noNamespaceSchemaLocation="http://sumo.dlr.de/xsd/polyconvertConfiguration.xsd">

    <input>
        <net-file value="Batavia.net.xml"/>
        <osm-files value="Batavia.osm"/>
        <type-file value="typemap.xml"/>
    </input>

    <output>
        <output-file value="Batavia.poly.xml"/>
    </output>

</configuration>
-->

<additional xmlns:xsi="http://www.w3.org/2001/XMLSchema-instance" xsi:noNamespaceSchemaLocation="http://sumo.dlr.de/xsd/additional_file.xsd">
    <location netOffset="-728963.86,-4762654.89" convBoundary="0.00,0.00,2343.97,3221.12" origBoundary="-78.191239,42.981399,-78.146643,43.010547" projParameter="+proj=utm +zone=17 +ellps=WGS84 +datum=WGS84 +units=m +no_defs"/>

    <poly id="139807615" type="unknown" color="51,128,255" fill="0" layer="-1.00" shape="608.50,1495.92 614.83,1533.27 619.53,1565.90 623.21,1592.59 643.04,1731.35 643.67,1736.81"/>
    <poly id="140641640" type="leisure" color="207,245,201" fill="1" layer="0.00" shape="1321.08,1790.83 1332.03,1798.96 1347.04,1862.19 1302.60,1867.83 1273.96,1857.87 1263.54,1843.23 1255.95,1800.13 1321.08,1790.83"/>
    <poly id="140641640#1" type="sport" color="79,230,125" fill="1" layer="2.00" shape="1321.08,1790.83 1332.03,1798.96 1347.04,1862.19 1302.60,1867.83 1273.96,1857.87 1263.54,1843.23 1255.95,1800.13 1321.08,1790.83"/>
    <poly id="20643001" type="unknown" color="51,128,255" fill="0" layer="-1.00" shape="782.03,544.46 789.63,563.84 794.69,597.81 809.67,696.27 827.15,812.48 844.22,926.46 873.36,1125.79 883.87,1189.41 894.00,1249.90 911.21,1366.89 912.51,1375.55 923.62,1449.24 924.02,1452.04 934.16,1521.76 935.16,1528.57 953.34,1655.49 958.98,1684.36 959.50,1690.72"/>
    <poly id="20644276" type="unknown" color="51,128,255" fill="0" layer="-1.00" shape="2343.97,0.00 2334.88,7.92 2298.64,39.28 2197.61,125.48 2183.91,137.14 2050.65,254.50 1945.19,345.24 1880.41,400.74 1859.65,418.61 1851.66,425.57 1843.59,432.52 1750.96,511.90 1693.36,562.10 1662.93,587.98 1649.15,599.75 1563.30,674.46 1474.86,750.65 1460.57,763.06 1370.86,840.76 1279.06,920.17 1085.85,1085.68 1017.03,1144.41 954.83,1198.02 894.00,1249.90 714.45,1405.53 701.93,1416.23 641.52,1467.79 631.18,1476.67 621.44,1484.91 608.50,1495.92 576.82,1522.88 421.04,1656.52 337.23,1729.43 324.31,1742.34 312.42,1753.61 311.04,1754.98 302.83,1767.19 298.80,1775.39 296.59,1782.88 295.44,1787.96"/>
    <poly id="20644317" type="unknown" color="51,128,255" fill="0" layer="-1.00" shape="614.83,1533.27 607.92,1527.70 600.53,1524.12 590.40,1522.11 576.82,1522.88"/>
    <poly id="20644321" type="unknown" color="51,128,255" fill="0" layer="-1.00" shape="603.19,1459.39 615.41,1464.91 618.83,1465.36 628.86,1467.92 641.52,1467.79"/>
    <poly id="20644597" type="unknown" color="51,128,255" fill="0" layer="-1.00" shape="623.21,1592.59 557.58,1648.87 504.28,1693.11 496.99,1696.21 472.83,1682.53 460.51,1689.02 438.62,1708.19"/>
    <poly id="20644779" type="unknown" color="51,128,255" fill="0" layer="-1.00" shape="761.37,1809.14 707.37,1818.11"/>
    <poly id="20646001" type="unknown" color="51,128,255" fill="0" layer="-1.00" shape="1236.06,1492.43 1244.58,1493.94 1314.04,1486.50 1316.26,1488.24 1326.47,1558.41"/>
    <poly id="20646688" type="unknown" color="51,128,255" fill="0" layer="-1.00" shape="510.71,831.78 515.13,880.18 519.19,907.55 528.99,973.03 535.78,1021.29 546.85,1097.71 563.35,1201.78 569.13,1233.99 574.44,1277.53 580.50,1316.09 582.18,1326.71 594.57,1402.51 596.00,1411.23 599.72,1436.37 603.19,1459.39 605.85,1480.05 607.62,1490.56 608.50,1495.92"/>
    <poly id="20646885" type="unknown" color="51,128,255" fill="0" layer="-1.00" shape="1379.79,1628.02 1380.19,1633.04 1403.68,1788.71 1420.02,1894.66 1437.01,2003.30 1442.75,2041.41 1479.56,2283.59 1499.75,2413.35 1518.60,2534.40 1526.37,2584.80 1529.98,2608.27 1572.10,2876.65 1579.17,2921.36 1607.85,3106.45 1607.60,3118.56 1604.32,3128.90"/>
    <poly id="20646892" type="unknown" color="51,128,255" fill="0" layer="-1.00" shape="883.87,1189.41 826.45,1195.71 819.77,1197.60 774.99,1235.78 692.03,1307.27 680.74,1310.67 582.18,1326.71"/>
    <poly id="20647604" type="unknown" color="51,128,255" fill="0" layer="-1.00" shape="1460.57,763.06 1468.45,783.68 1473.32,806.30 1474.73,817.58 1497.89,966.23 1508.53,1040.42 1524.20,1144.57 1534.39,1215.18 1547.86,1304.80 1554.60,1346.94 1559.38,1379.68 1561.16,1392.08 1561.83,1396.55 1566.71,1428.52 1571.61,1460.03 1591.71,1597.47"/>
    <poly id="20647629" type="unknown" color="51,128,255" fill="0" layer="-1.00" shape="1612.86,1446.86 1607.62,1452.13 1597.88,1455.25 1571.61,1460.03"/>
    <poly id="20648379" type="unknown" color="51,128,255" fill="0" layer="-1.00" shape="1616.36,1757.07 1403.68,1788.71"/>
    <poly id="20648658" type="unknown" color="51,128,255" fill="0" layer="-1.00" shape="959.50,1690.72 959.85,1694.84 967.06,1742.78 1003.94,1983.18 1034.68,2190.45 1078.26,2469.32 1107.35,2664.76 1119.29,2748.88 1120.67,2754.04 1125.16,2758.75 1129.18,2760.45 1133.41,2760.92 1192.79,2751.91 1224.73,2745.98"/>
    <poly id="20648675" type="unknown" color="51,128,255" fill="0" layer="-1.00" shape="1257.51,1645.59 1256.86,1640.79 1250.55,1592.99 1236.06,1492.43"/>
    <poly id="20648824" type="unknown" color="51,128,255" fill="0" layer="-1.00" shape="1591.71,1597.47 1616.36,1757.07 1632.62,1863.13 1649.92,1972.12 1681.20,2172.19 1712.18,2371.81 1732.67,2502.14 1739.38,2547.62"/>
    <poly id="20649458" type="unknown" color="51,128,255" fill="0" layer="-1.00" shape="748.11,1722.98 748.56,1726.44 761.37,1809.14 776.05,1904.36 793.93,2013.37 831.31,2263.45 865.97,2504.77 891.17,2675.17 906.46,2783.42 913.54,2827.80 923.18,2888.27 926.11,2900.49 931.12,2914.11 941.00,2935.90 950.72,2950.13 952.27,2952.40 966.97,2966.57 986.91,2977.92 997.23,2981.60 1019.43,2986.24 1023.09,2986.69 1154.89,3002.91 1266.12,3014.66 1368.67,3027.12 1376.56,3028.05 1406.67,3032.74 1435.65,3039.72 1460.98,3048.35 1473.76,3053.90 1510.13,3074.02 1604.32,3128.90 1625.03,3141.27 1760.89,3221.12"/>
    <poly id="20649583" type="unknown" color="51,128,255" fill="0" layer="-1.00" shape="1167.35,1659.57 1185.63,1785.93 1212.30,1951.16 1223.79,2029.48 1224.92,2037.08 1226.51,2047.92 1243.26,2159.00 1256.13,2242.15 1286.33,2438.30 1290.03,2461.88 1311.39,2598.13 1376.61,3011.82 1376.56,3028.05"/>
    <poly id="20649584" type="unknown" color="51,128,255" fill="0" layer="-1.00" shape="1375.35,2012.01 1346.04,1816.12"/>
    <poly id="20650896" type="unknown" color="51,128,255" fill="0" layer="-1.00" shape="748.11,1722.98 643.67,1736.81 459.23,1764.68 338.98,1779.52 311.83,1784.37 295.44,1787.96"/>
    <poly id="20651050" type="unknown" color="51,128,255" fill="0" layer="-1.00" shape="879.76,1700.71 880.54,1706.52 887.83,1754.46 922.61,1994.45"/>
    <poly id="20651520" type="unknown" color="51,128,255" fill="0" layer="-1.00" shape="1684.87,1581.59 1658.29,1585.59 1591.71,1597.47 1379.79,1628.02 1257.51,1645.59 1221.86,1650.17 1167.35,1659.57 959.50,1690.72 879.76,1700.71 748.11,1722.98"/>
    <poly id="20651642" type="unknown" color="51,128,255" fill="0" layer="-1.00" shape="1085.85,1085.68 1088.70,1102.79 1097.54,1155.56 1102.02,1184.95 1108.78,1229.21 1115.93,1281.15 1120.78,1316.56 1121.42,1321.33 1135.39,1423.23 1136.76,1433.39 1145.59,1498.40 1166.56,1654.09 1167.35,1659.57"/>
    <poly id="20651709" type="unknown" color="51,128,255" fill="0" layer="-1.00" shape="1658.29,1585.59 1657.89,1580.69 1638.95,1457.19 1637.02,1444.34 1630.42,1402.87 1627.79,1398.44 1621.67,1396.01 1561.83,1396.55"/>
    <poly id="20652040" type="unknown" color="51,128,255" fill="0" layer="-1.00" shape="701.93,1416.23 710.80,1468.00 711.34,1471.36 723.24,1552.14 747.18,1716.61 748.11,1722.98"/>
    <poly id="20652506" type="unknown" color="51,128,255" fill="0" layer="-1.00" shape="594.57,1402.51 500.45,1408.02"/>
    <poly id="20652712" type="unknown" color="51,128,255" fill="0" layer="-1.00" shape="1359.57,1474.69 1379.79,1628.02"/>
    <poly id="20653363" type="unknown" color="51,128,255" fill="0" layer="-1.00" shape="1566.71,1428.52 1586.03,1424.39 1602.39,1423.38 1608.23,1424.36 1612.56,1428.95 1614.74,1436.92 1613.83,1444.67 1612.86,1446.86"/>
    <poly id="20653502" type="unknown" color="51,128,255" fill="0" layer="-1.00" shape="935.16,1528.57 976.79,1520.96 1032.34,1514.71 1117.52,1503.12 1145.59,1498.40 1217.53,1487.81 1226.52,1487.44 1236.06,1492.43"/>
    <poly id="20653505" type="unknown" color="51,128,255" fill="0" layer="-1.00" shape="934.16,1521.76 784.10,1545.40 751.64,1549.76 723.24,1552.14 651.21,1560.73 619.53,1565.90"/>
    <poi id="221618947" type="unknown" color="51,128,255" layer="-1.00" x="894.00" y="1249.90"/>
    <poi id="221618980" type="unknown" color="51,128,255" layer="-1.00" x="959.50" y="1690.72"/>
    <poi id="221619412" type="unknown" color="51,128,255" layer="-1.00" x="2197.61" y="125.48"/>
    <poi id="221633881" type="unknown" color="51,128,255" layer="-1.00" x="295.44" y="1787.96"/>
    <poi id="221660695" type="unknown" color="51,128,255" layer="-1.00" x="608.50" y="1495.92"/>
    <poi id="221660709" type="unknown" color="51,128,255" layer="-1.00" x="643.67" y="1736.81"/>
    <poi id="221662702" type="unknown" color="51,128,255" layer="-1.00" x="1379.79" y="1628.02"/>
    <poi id="221665255" type="unknown" color="51,128,255" layer="-1.00" x="421.04" y="1656.52"/>
    <poi id="221670233" type="unknown" color="51,128,255" layer="-1.00" x="1460.57" y="763.06"/>
    <poi id="221670285" type="unknown" color="51,128,255" layer="-1.00" x="1591.71" y="1597.47"/>
    <poi id="221678282" type="unknown" color="51,128,255" layer="-1.00" x="1085.85" y="1085.68"/>
    <poi id="221688643" type="unknown" color="51,128,255" layer="-1.00" x="748.11" y="1722.98"/>
    <poi id="221689942" type="unknown" color="51,128,255" layer="-1.00" x="1167.35" y="1659.57"/>
    <poi id="221702293" type="unknown" color="51,128,255" layer="-1.00" x="459.23" y="1764.68"/>
    <poi id="221726845" type="unknown" color="51,128,255" layer="-1.00" x="1474.86" y="750.65"/>
    <poi id="357642197" type="amenity" color="237,199,199" layer="2.00" x="997.25" y="1713.91"/>
    <poi id="357642199" type="amenity" color="237,199,199" layer="2.00" x="995.18" y="1775.61"/>
    <poi id="357642207" type="amenity" color="237,199,199" layer="2.00" x="1268.98" y="1723.05"/>
    <poi id="357642209" type="amenity" color="237,199,199" layer="2.00" x="1474.85" y="1668.21"/>
    <poi id="357642215" type="amenity" color="237,199,199" layer="2.00" x="976.68" y="1651.46"/>
    <poi id="357642217" type="amenity" color="237,199,199" layer="2.00" x="1045.65" y="1622.89"/>
    <poi id="368056330" type="building" color="255,230,230" layer="2.00" x="978.75" y="1589.75"/>
    <poi id="368056334" type="building" color="255,230,230" layer="2.00" x="1042.54" y="1715.43"/>
</additional>
