<?xml version="1.0"?>
<!-- generated on 2015-06-05 04:59:22.499170 by $Id: randomTrips.py 18096 2015-03-17 09:50:59Z behrisch $
  options: -n Batavia.net.xml -r Batavia.rou.xml -e 50.0 -p 0.5 <doubleminus>trip-attributes=departLane="best" departSpeed="max" departPos="free" -l
-->
<trips>
    <trip id="0" depart="0.00" from="-20653502#0" to="-20647604#1" departLane="best" departSpeed="max" departPos="free"/>
    <trip id="1" depart="0.50" from="-20648824#1" to="20647604#1" departLane="best" departSpeed="max" departPos="free"/>
    <trip id="2" depart="1.00" from="-20651642#2" to="20644276#1" departLane="best" departSpeed="max" departPos="free"/>
    <trip id="3" depart="1.50" from="20644276#5" to="20644276#5" departLane="best" departSpeed="max" departPos="free"/>
    <trip id="4" depart="2.00" from="20647604#1" to="-20646688#0" departLane="best" departSpeed="max" departPos="free"/>
    <trip id="5" depart="2.50" from="20651642#1" to="-20647604#1" departLane="best" departSpeed="max" departPos="free"/>
    <trip id="6" depart="3.00" from="-20651520#2" to="20649583" departLane="best" departSpeed="max" departPos="free"/>
    <trip id="7" depart="3.50" from="-20649458#1" to="20646892" departLane="best" departSpeed="max" departPos="free"/>
    <trip id="8" depart="4.00" from="20646885#1" to="-20651520#2" departLane="best" departSpeed="max" departPos="free"/>
    <trip id="9" depart="4.50" from="20643001#0" to="-20644276#3" departLane="best" departSpeed="max" departPos="free"/>
    <trip id="10" depart="5.00" from="-20648658" to="20646892" departLane="best" departSpeed="max" departPos="free"/>
    <trip id="11" depart="5.50" from="20651520#7" to="20649583" departLane="best" departSpeed="max" departPos="free"/>
    <trip id="12" depart="6.00" from="20644276#3" to="-20643001#2" departLane="best" departSpeed="max" departPos="free"/>
    <trip id="13" depart="6.50" from="-20649583" to="-20646885#1" departLane="best" departSpeed="max" departPos="free"/>
    <trip id="14" depart="7.00" from="-20646885#1" to="-20646688#0" departLane="best" departSpeed="max" departPos="free"/>
    <trip id="15" depart="7.50" from="20649458#1" to="-20643001#0" departLane="best" departSpeed="max" departPos="free"/>
    <trip id="16" depart="8.00" from="-20653363" to="20648824#1" departLane="best" departSpeed="max" departPos="free"/>
    <trip id="17" depart="8.50" from="-20647604#2" to="20646885#1" departLane="best" departSpeed="max" departPos="free"/>
    <trip id="18" depart="9.00" from="20649458#1" to="20651520#4" departLane="best" departSpeed="max" departPos="free"/>
    <trip id="19" depart="9.50" from="20644276#5" to="20649583" departLane="best" departSpeed="max" departPos="free"/>
    <trip id="20" depart="10.00" from="20653502#0" to="-20649458#1" departLane="best" departSpeed="max" departPos="free"/>
    <trip id="21" depart="10.50" from="20646885#0" to="-20643001#0" departLane="best" departSpeed="max" departPos="free"/>
    <trip id="22" depart="11.00" from="-20653502#0" to="20651520#2" departLane="best" departSpeed="max" departPos="free"/>
    <trip id="23" depart="11.50" from="20643001#4" to="20647604#0" departLane="best" departSpeed="max" departPos="free"/>
    <trip id="24" depart="12.00" from="-20648658" to="-20649583" departLane="best" departSpeed="max" departPos="free"/>
    <trip id="25" depart="12.50" from="-20646892" to="-20651520#2" departLane="best" departSpeed="max" departPos="free"/>
    <trip id="26" depart="13.00" from="-20653502#0" to="20646885#1" departLane="best" departSpeed="max" departPos="free"/>
    <trip id="27" depart="13.50" from="-20649583" to="-20649583" departLane="best" departSpeed="max" departPos="free"/>
    <trip id="28" depart="14.00" from="-20649458#1" to="-20646885#1" departLane="best" departSpeed="max" departPos="free"/>
    <trip id="29" depart="14.50" from="-20649583" to="-20644276#10" departLane="best" departSpeed="max" departPos="free"/>
    <trip id="30" depart="15.00" from="-20646892" to="20649458#1" departLane="best" departSpeed="max" departPos="free"/>
    <trip id="31" depart="15.50" from="20649458#1" to="-20649583" departLane="best" departSpeed="max" departPos="free"/>
    <trip id="32" depart="16.00" from="20649458#1" to="20644276#1" departLane="best" departSpeed="max" departPos="free"/>
    <trip id="33" depart="16.50" from="20651709" to="20649458#1" departLane="best" departSpeed="max" departPos="free"/>
    <trip id="34" depart="17.00" from="20644317" to="20644276#5" departLane="best" departSpeed="max" departPos="free"/>
    <trip id="35" depart="17.50" from="-20644276#5" to="20651642#0" departLane="best" departSpeed="max" departPos="free"/>
    <trip id="36" depart="18.00" from="20649458#1" to="20646885#1" departLane="best" departSpeed="max" departPos="free"/>
    <trip id="37" depart="18.50" from="20644276#1" to="-20649583" departLane="best" departSpeed="max" departPos="free"/>
    <trip id="38" depart="19.00" from="20653502#0" to="20646885#1" departLane="best" departSpeed="max" departPos="free"/>
    <trip id="39" depart="19.50" from="20649583" to="20649458#1" departLane="best" departSpeed="max" departPos="free"/>
    <trip id="40" depart="20.00" from="-20649458#1" to="-20644276#1" departLane="best" departSpeed="max" departPos="free"/>
    <trip id="41" depart="20.50" from="20651709" to="-20643001#0" departLane="best" departSpeed="max" departPos="free"/>
    <trip id="42" depart="21.00" from="20651709" to="20648675" departLane="best" departSpeed="max" departPos="free"/>
    <trip id="43" depart="21.50" from="20649583" to="20648658" departLane="best" departSpeed="max" departPos="free"/>
    <trip id="44" depart="22.00" from="20649458#1" to="-20649458#2" departLane="best" departSpeed="max" departPos="free"/>
    <trip id="45" depart="22.50" from="52070654#3" to="20646885#1" departLane="best" departSpeed="max" departPos="free"/>
    <trip id="46" depart="23.00" from="20646885#1" to="20649458#0" departLane="best" departSpeed="max" departPos="free"/>
    <trip id="47" depart="23.50" from="20646688#0" to="20648379" departLane="best" departSpeed="max" departPos="free"/>
    <trip id="48" depart="24.00" from="-20649583" to="-20646688#0" departLane="best" departSpeed="max" departPos="free"/>
    <trip id="49" depart="24.50" from="-20651642#1" to="20651050" departLane="best" departSpeed="max" departPos="free"/>
    <trip id="50" depart="25.00" from="20647604#0" to="20653502#0" departLane="best" departSpeed="max" departPos="free"/>
    <trip id="51" depart="25.50" from="20649458#1" to="-20651642#2" departLane="best" departSpeed="max" departPos="free"/>
    <trip id="52" depart="26.00" from="-20649458#1" to="20648658" departLane="best" departSpeed="max" departPos="free"/>
    <trip id="53" depart="26.50" from="52070654#5" to="52070654#4" departLane="best" departSpeed="max" departPos="free"/>
    <trip id="54" depart="27.00" from="20653502#1" to="52070654#5" departLane="best" departSpeed="max" departPos="free"/>
    <trip id="55" depart="27.50" from="-20644276#3" to="20648824#1" departLane="best" departSpeed="max" departPos="free"/>
    <trip id="56" depart="28.00" from="20644276#11" to="20644276#3" departLane="best" departSpeed="max" departPos="free"/>
    <trip id="57" depart="28.50" from="20644276#1" to="-20651520#3" departLane="best" departSpeed="max" departPos="free"/>
    <trip id="58" depart="29.00" from="20643001#1" to="-20643001#0" departLane="best" departSpeed="max" departPos="free"/>
    <trip id="59" depart="29.50" from="-20649458#1" to="20646885#1" departLane="best" departSpeed="max" departPos="free"/>
    <trip id="60" depart="30.00" from="20644276#3" to="-20649583" departLane="best" departSpeed="max" departPos="free"/>
    <trip id="61" depart="30.50" from="20644276#10" to="-20644276#1" departLane="best" departSpeed="max" departPos="free"/>
    <trip id="62" depart="31.00" from="-20649458#1" to="20651642#0" departLane="best" departSpeed="max" departPos="free"/>
    <trip id="63" depart="31.50" from="20649458#1" to="-20649583" departLane="best" departSpeed="max" departPos="free"/>
    <trip id="64" depart="32.00" from="20644276#7" to="-20643001#0" departLane="best" departSpeed="max" departPos="free"/>
    <trip id="65" depart="32.50" from="-20644276#1" to="20649583" departLane="best" departSpeed="max" departPos="free"/>
    <trip id="66" depart="33.00" from="52070654#0" to="-20651642#1" departLane="best" departSpeed="max" departPos="free"/>
    <trip id="67" depart="33.50" from="20649458#1" to="20651709" departLane="best" departSpeed="max" departPos="free"/>
    <trip id="68" depart="34.00" from="20647604#0" to="-20649583" departLane="best" departSpeed="max" departPos="free"/>
    <trip id="69" depart="34.50" from="52070654#5" to="20644276#11" departLane="best" departSpeed="max" departPos="free"/>
    <trip id="70" depart="35.00" from="-20646885#0" to="20649458#1" departLane="best" departSpeed="max" departPos="free"/>
    <trip id="71" depart="35.50" from="20651520#5" to="52070654#6" departLane="best" departSpeed="max" departPos="free"/>
    <trip id="72" depart="36.00" from="-20649583" to="-20649458#1" departLane="best" departSpeed="max" departPos="free"/>
    <trip id="73" depart="36.50" from="-20649583" to="20646885#1" departLane="best" departSpeed="max" departPos="free"/>
    <trip id="74" depart="37.00" from="-20648824#1" to="20651520#3" departLane="best" departSpeed="max" departPos="free"/>
    <trip id="75" depart="37.50" from="20649458#1" to="20650896#1" departLane="best" departSpeed="max" departPos="free"/>
    <trip id="76" depart="38.00" from="-20644276#1" to="20651642#0" departLane="best" departSpeed="max" departPos="free"/>
    <trip id="77" depart="38.50" from="-20644276#5" to="139807615#2" departLane="best" departSpeed="max" departPos="free"/>
    <trip id="78" depart="39.00" from="20646885#0" to="20649458#1" departLane="best" departSpeed="max" departPos="free"/>
    <trip id="79" depart="39.50" from="-20646885#1" to="20649583" departLane="best" departSpeed="max" departPos="free"/>
    <trip id="80" depart="40.00" from="20648379" to="20646885#0" departLane="best" departSpeed="max" departPos="free"/>
    <trip id="81" depart="40.50" from="-20649458#3" to="-20644276#3" departLane="best" departSpeed="max" departPos="free"/>
    <trip id="82" depart="41.00" from="20649458#1" to="20648824#1" departLane="best" departSpeed="max" departPos="free"/>
    <trip id="83" depart="41.50" from="-20644276#11" to="-20646885#1" departLane="best" departSpeed="max" departPos="free"/>
    <trip id="84" depart="42.00" from="20644276#5" to="-20643001#1" departLane="best" departSpeed="max" departPos="free"/>
    <trip id="85" depart="42.50" from="-20652040#1" to="-20649458#1" departLane="best" departSpeed="max" departPos="free"/>
    <trip id="86" depart="43.00" from="-20644276#4" to="-20649583" departLane="best" departSpeed="max" departPos="free"/>
    <trip id="87" depart="43.50" from="20647604#1" to="-20646885#1" departLane="best" departSpeed="max" departPos="free"/>
    <trip id="88" depart="44.00" from="-20646885#1" to="-20646885#0" departLane="best" departSpeed="max" departPos="free"/>
    <trip id="89" depart="44.50" from="-20646885#1" to="-20651642#0" departLane="best" departSpeed="max" departPos="free"/>
    <trip id="90" depart="45.00" from="-20650896#1" to="-20646885#1" departLane="best" departSpeed="max" departPos="free"/>
    <trip id="91" depart="45.50" from="-20649458#1" to="20649458#1" departLane="best" departSpeed="max" departPos="free"/>
    <trip id="92" depart="46.00" from="20646892" to="20644276#10" departLane="best" departSpeed="max" departPos="free"/>
    <trip id="93" depart="46.50" from="-20650896#2" to="20643001#4" departLane="best" departSpeed="max" departPos="free"/>
    <trip id="94" depart="47.00" from="20651642#1" to="-20644276#10" departLane="best" departSpeed="max" departPos="free"/>
    <trip id="95" depart="47.50" from="-20649583" to="-20643001#0" departLane="best" departSpeed="max" departPos="free"/>
    <trip id="96" depart="48.00" from="-20644597" to="-20644276#1" departLane="best" departSpeed="max" departPos="free"/>
    <trip id="97" depart="48.50" from="52070654#5" to="20644276#3" departLane="best" departSpeed="max" departPos="free"/>
    <trip id="98" depart="49.00" from="-20652040#1" to="20651050" departLane="best" departSpeed="max" departPos="free"/>
    <trip id="99" depart="49.50" from="20651520#6" to="-20643001#0" departLane="best" departSpeed="max" departPos="free"/>
</trips>
